1

   Abaqus 3DEXPERIENCE R2019x                                  Date 24-sep-2020   Time 16:37:57
   For use by NTNU NORGES TEKNISK NATURVITENSKAPELIGE UNIVERSITET under license from Dassault Systemes or its subsidiary.



                         The Abaqus Software is a product of:

                           Dassault Systemes SIMULIA Corp.
                           1301 Atwood Avenue, Suite 101W
                              Johnston, RI 02919, USA
 


                   The Abaqus Software is available only under license
                   from Dassault Systemes or its subsidiary and may be
                   used or reproduced only in accordance with the terms
                   of such license.
 
                          On machine iktutlaan12 
                          you are authorized to run
                          Abaqus/Standard until 30-Sep-2021

                          Your site id is: 100000000001981 


 
                    For assistance or any other information you may
                    obtain contact information for your local office
                    from the world wide web at:

                      http://www.3ds.com/products/simulia/locations/

 
                * * * * * * * * * * * * * * * * * * * * * * * * * * * * * * 
                *                                                         * 
                *                   *****************                     * 
                *                   *  N O T I C E  *                     * 
                *                   *****************                     * 
                *                                                         * 
                *                                                         * 
                *               Abaqus 3DEXPERIENCE R2019x                * 
                *                                                         * 
                *          BUILD ID: 2018_09_24-20.41.51 157541           * 
                *                                                         * 
                *                                                         * 
                *  Please make sure you are using                         * 
                *  release 3DEXPERIENCE R2019x manuals                    * 
                *  plus the notes accompanying this release.              * 
                *                                                         * 
                *                                                         * 
                *                                                         * 
                *                                                         * 
                *                                                         * 
                *   This program may not be used for commercial purposes  * 
                *           without payment of a commercial fee.          * 
                *                                                         * 
                * * * * * * * * * * * * * * * * * * * * * * * * * * * * * * 


 



     PROCESSING PART, INSTANCE, AND ASSEMBLY INFORMATION
   *******************************************************


     END PROCESSING PART, INSTANCE, AND ASSEMBLY INFORMATION
   ***********************************************************

  *initialconditions, type=TEMPERATURE



     OPTIONS BEING PROCESSED
   ***************************


  *Heading
  *Node
  *Element, type=DC3D8
  *Nset, nset=ASSEMBLY_THERMAL-1_ADDELEMENT
  *Nset, nset=ASSEMBLY_THERMAL-1_SET-2
  *Elset, elset=ASSEMBLY_THERMAL-1_ADDELEMENT
  *Elset, elset=ASSEMBLY_THERMAL-1_SET-2
  *Nset, nset=ASSEMBLY_ALL_NODES
  *Nset, nset=ASSEMBLY_SET-1
  *Nset, nset=ASSEMBLY_SET-6
  *Elset, elset=ASSEMBLY_ADDELEMENT
  *Elset, elset=ASSEMBLY_SET-1
  *Elset, elset=ASSEMBLY_SET-2
  *Elset, elset=ASSEMBLY_SET-6
  *Elset, elset=ASSEMBLY__AM-MODEL-1__ALLBUILDPARTS__
  *physicalconstants, absolutezero=-273.15, stefanboltzmann=5.67e-08
  *eventseriestype, fields=1, name="ABQ_AM.MaterialDeposition"
  *eventseriestype, fields=1, name="ABQ_AM.PowerMagnitude"
  *eventseries, name="material path", time=TOTALTIME, type="ABQ_AM.MaterialDeposition", input="material_input.txt"

  *** INPUT DATA IS READ FROM FILE material_input.txt                                                                                                                                                                                                                                             

  *eventseries, name="heat pathj", time=TOTALTIME, type="ABQ_AM.MaterialDeposition", input="heat_input.txt"

  *** INPUT DATA IS READ FROM FILE heat_input.txt                                                                                                                                                                                                                                                 

  *parametertabletype, name="ABQ_AM.MovingHeatSource", parameters=2
  *parametertabletype, name="ABQ_AM.MaterialDeposition.Advanced", parameters=3
  *parametertabletype, name="ABQ_AM.MovingHeatSource.Uniform", parameters=9
  *parametertabletype, name="ABQ_AM.MovingHeatSource.Goldak", parameters=10
  *parametertabletype, name="ABQ_AM.MovingHeatSource.Advanced", parameters=7
  *parametertabletype, name="ABQ_AM.MaterialDeposition.Bead", parameters=5
  *parametertabletype, name="ABQ_AM.MaterialDeposition", parameters=2
  *propertytabletype, name="ABQ_AM.AbsorptionCoeff", properties=1
  *propertytabletype, name="ABQ_AM.EnclosureAmbientTemp", properties=1
  *tablecollection, name=ABQ_AM_MATERIAL
  *parametertable, type="ABQ_AM.MaterialDeposition.Bead"
  *parametertable, type="ABQ_AM.MaterialDeposition"
  *parametertable, type="ABQ_AM.MaterialDeposition.Advanced"
  *tablecollection, name=ABQ_AM_HEAT
  *propertytable, type="ABQ_AM.AbsorptionCoeff"
  *parametertable, type="ABQ_AM.MovingHeatSource.Advanced"
  *parametertable, type="ABQ_AM.MovingHeatSource"
  *parametertable, type="ABQ_AM.MovingHeatSource.Goldak"
  *material, name=MATERIAL-1
  *conductivity
  *density
  *elastic
  *expansion
  *latentheat
  *plastic
  *specificheat
  *initialconditions, type=TEMPERATURE
  *solidsection, elset=ASSEMBLY_THERMAL-1_SET-2, material=MATERIAL-1
  *solidsection, elset=ASSEMBLY_THERMAL-1_SET-2, material=MATERIAL-1

 ***WARNING: OUTPUT VARIABLES FILMCOEF AND SINKTEMP ARE NOT SUPPORTED FOR 
             OUTPUT WITH LOAD LABEL FFS AND FFSNU.
  *initialconditions, type=TEMPERATURE
  *boundary
  *boundary
  *output, field
  *output, history
  *output, field, frequency=1
  *elementoutput, directions=YES
  *elementoutput
  *elementprogressiveactivation, name="__AM-Model-1_Material Source -1_EPA__", followdeformation=NO, elset=ASSEMBLY_ADDELEMENT
  *initialconditions, type=TEMPERATURE
  *output, field
  *output, history
  *output, field, frequency=1
  *elementoutput, directions=YES
  *elementoutput
  *initialconditions, type=TEMPERATURE
  *output, field
  *output, history
  *output, field, frequency=1
  *elementoutput, directions=YES
  *elementoutput
  *Step, name=heat, nlgeom=NO, inc=100000
  *output, field
  *output, history
  *output, field, frequency=1
  *Step, name=heat, nlgeom=NO, inc=100000
  *Step, name=heat, nlgeom=NO, inc=100000
  *heattransfer, end=PERIOD, deltmx=1000, mxdem=1
  *activateelements, activation="__AM-Model-1_Material Source -1_EPA__"
  *dflux
  *film

 ***WARNING: OUTPUT VARIABLES FILMCOEF AND SINKTEMP ARE NOT SUPPORTED FOR 
             OUTPUT WITH LOAD LABEL FFS AND FFSNU.
  *film

 ***WARNING: OUTPUT VARIABLES FILMCOEF AND SINKTEMP ARE NOT SUPPORTED FOR 
             OUTPUT WITH LOAD LABEL FFS AND FFSNU.
  *radiate
  *radiate
  *output, field
  *nodeoutput
  *elementoutput, directions=YES
  *contactoutput
  *radiationoutput
  *output, history
  *contactoutput
  *radiationoutput
  *output, field, frequency=1
  *elementoutput
  *endstep

 ***WARNING: NO VALID RADIATION OUTPUT REQUESTS HAVE BEEN GENERATED. THIS MAY 
             BE BECAUSE NO VALID CAVITIES EXIST IN THE MODEL.

 ***WARNING: NO VALID RADIATION OUTPUT REQUESTS HAVE BEEN GENERATED. THIS MAY 
             BE BECAUSE NO VALID CAVITIES EXIST IN THE MODEL.

 ***WARNING: OUTPUT REQUEST EACTIVE IS ONLY AVAILABLE FOR ELEMENTS WITH 
             PROGRESSIVE ACTIVATION
  *boundary
  *Step, name=heat, nlgeom=NO, inc=100000
  *heattransfer, end=PERIOD, deltmx=1000, mxdem=1
  *endstep

 ***NOTE: Boundary conditions are specified on inactive dof of 121 nodes. The 
          nodes have been identified in node set WarnNodeBCInactiveDof.



                            P R O B L E M   S I Z E


          NUMBER OF ELEMENTS IS                                   236
          NUMBER OF NODES IS                                      412
          NUMBER OF NODES DEFINED BY THE USER                     412
          TOTAL NUMBER OF VARIABLES IN THE MODEL                  412
          (DEGREES OF FREEDOM PLUS MAX NO. OF ANY LAGRANGE MULTIPLIER
           VARIABLES. INCLUDE *PRINT,SOLVE=YES TO GET THE ACTUAL NUMBER.)



                              END OF USER INPUT PROCESSING



     JOB TIME SUMMARY
       USER TIME (SEC)      =  0.20000    
       SYSTEM TIME (SEC)    =  0.10000    
       TOTAL CPU TIME (SEC) =  0.30000    
       WALLCLOCK TIME (SEC) =          1
1

   Abaqus 3DEXPERIENCE R2019x                                  Date 24-sep-2020   Time 16:38:06
   For use by NTNU NORGES TEKNISK NATURVITENSKAPELIGE UNIVERSITET under license from Dassault Systemes or its subsidiary.

                                                                                               STEP    1  INCREMENT    1
                                                                                          TIME COMPLETED IN THIS STEP   0.00    


                        S T E P       1     T R A N S I E N T   H E A T   T R A N S F E R


                                                                                          

     AUTOMATIC TIME CONTROL WITH -
          A SUGGESTED INITIAL TIME INCREMENT OF                1.000E-03
          AND A TOTAL TIME PERIOD OF                            10.0    
          THE MINIMUM TIME INCREMENT ALLOWED IS                1.000E-06
          THE MAXIMUM TIME INCREMENT ALLOWED IS                0.100    

     THE SIZE OF THE TIME INCREMENT IS CONTROLLED BY -
          THE TEMPERATURE CHANGE PER INCREMENT NOT EXCEEDING           1.000E+03
  
                   M E M O R Y   E S T I M A T E
  
 PROCESS      FLOATING PT       MINIMUM MEMORY        MEMORY TO
              OPERATIONS           REQUIRED          MINIMIZE I/O
             PER ITERATION           (MB)               (MB)
  
     1          4.79E+05               17                 24
  
 NOTE:
      (1) SINCE ABAQUS DOES NOT PRE-ALLOCATE MEMORY AND ONLY ALLOCATES MEMORY AS NEEDED DURING THE ANALYSIS,
          THE MEMORY REQUIREMENT PRINTED HERE CAN ONLY BE VIEWED AS A GENERAL GUIDELINE BASED ON THE BEST
          KNOWLEDGE AVAILABLE AT THE BEGINNING OF A STEP BEFORE THE SOLUTION PROCESS HAS BEGUN.
      (2) THE ESTIMATE IS NORMALLY UPDATED AT THE BEGINNING OF EVERY STEP. IT IS THE MAXIMUM VALUE OF THE
          ESTIMATE FROM THE CURRENT STEP TO THE LAST STEP OF THE ANALYSIS, WITH UNSYMMETRIC SOLUTION TAKEN
          INTO ACCOUNT IF APPLICABLE. 
      (3) SINCE THE ESTIMATE IS BASED ON THE ACTIVE DEGREES OF FREEDOM IN THE FIRST ITERATION OF THE 
          CURRENT STEP, THE MEMORY ESTIMATE MIGHT BE SIGNIFICANTLY DIFFERENT THAN ACTUAL USAGE FOR 
          PROBLEMS WITH SUBSTANTIAL CHANGES IN ACTIVE DEGREES OF FREEDOM BETWEEN STEPS (OR EVEN WITHIN
          THE SAME STEP). EXAMPLES ARE: PROBLEMS WITH SIGNIFICANT CONTACT CHANGES, PROBLEMS WITH MODEL
          CHANGE, PROBLEMS WITH BOTH STATIC STEP AND STEADY STATE DYNAMIC PROCEDURES WHERE ACOUSTIC 
          ELEMENTS WILL ONLY BE ACTIVATED IN THE STEADY STATE DYNAMIC STEPS.
      (4) FOR MULTI-PROCESS EXECUTION, THE ESTIMATED VALUE OF FLOATING POINT OPERATIONS FOR EACH PROCESS
          IS BASED ON AN INITIAL SCHEDULING OF OPERATIONS AND MIGHT NOT REFLECT THE ACTUAL FLOATING 
          POINT OPERATIONS COMPLETED ON EACH PROCESS. OPERATIONS ARE DYNAMICALLY BALANCED DURING EXECUTION, 
          SO THE ACTUAL BALANCE OF OPERATIONS BETWEEN PROCESSES IS EXPECTED TO BE BETTER THAN THE ESTIMATE
          PRINTED HERE.
      (5) THE UPPER LIMIT OF MEMORY THAT CAN BE ALLOCATED BY ABAQUS WILL IN GENERAL DEPEND ON THE VALUE OF
          THE "MEMORY" PARAMETER AND THE AMOUNT OF PHYSICAL MEMORY AVAILABLE ON THE MACHINE. PLEASE SEE
          THE "ABAQUS ANALYSIS USER'S MANUAL" FOR MORE DETAILS. THE ACTUAL USAGE OF MEMORY AND OF DISK
          SPACE FOR SCRATCH DATA WILL DEPEND ON THIS UPPER LIMIT AS WELL AS THE MEMORY REQUIRED TO MINIMIZE
          I/O. IF THE MEMORY UPPER LIMIT IS GREATER THAN THE MEMORY REQUIRED TO MINIMIZE I/O, THEN THE ACTUAL
          MEMORY USAGE WILL BE CLOSE TO THE ESTIMATED "MEMORY TO MINIMIZE I/O" VALUE, AND THE SCRATCH DISK
          USAGE WILL BE CLOSE-TO-ZERO; OTHERWISE, THE ACTUAL MEMORY USED WILL BE CLOSE TO THE PREVIOUSLY
          MENTIONED MEMORY LIMIT, AND THE SCRATCH DISK USAGE WILL BE ROUGHLY PROPORTIONAL TO THE DIFFERENCE
          BETWEEN THE ESTIMATED "MEMORY TO MINIMIZE I/O" AND THE MEMORY UPPER LIMIT. HOWEVER ACCURATE
          ESTIMATE OF THE SCRATCH DISK SPACE IS NOT POSSIBLE.
      (6) USING "*RESTART, WRITE" CAN GENERATE A LARGE AMOUNT OF DATA WRITTEN IN THE WORK DIRECTORY.


          THE ANALYSIS HAS BEEN COMPLETED



                              ANALYSIS COMPLETE
                              WITH      6 WARNING MESSAGES ON THE DAT FILE



     JOB TIME SUMMARY
       USER TIME (SEC)      =   12.900    
       SYSTEM TIME (SEC)    =   3.9000    
       TOTAL CPU TIME (SEC) =   16.800    
       WALLCLOCK TIME (SEC) =         16
