*Heading
** Job name: Job-1 Model name: thermal
** Generated by: Abaqus/CAE 2019
*Preprint, echo=NO, model=NO, history=NO, contact=NO
**
** PARTS
**
*Part, name=thermal
*Node
      1, 0.0599999987, 0.0599999987, 0.0211500004
      2,           0., 0.0599999987, 0.0211500004
      3,           0.,           0., 0.0211500004
      4, 0.0599999987,           0., 0.0211500004
      5, 0.0599999987, 0.0599999987, 0.0199999996
      6,           0., 0.0599999987, 0.0199999996
      7,           0.,           0., 0.0199999996
      8, 0.0599999987,           0., 0.0199999996
      9, 0.0799999982, -0.0199999996, 0.0199999996
     10, 0.0799999982, 0.0799999982, 0.0199999996
     11, -0.0199999996, 0.0799999982, 0.0199999996
     12, -0.0199999996, -0.0199999996, 0.0199999996
     13, -0.0199999996, 0.0799999982, -4.47034826e-10
     14, 0.0799999982, 0.0799999982, -4.47034826e-10
     15, 0.0799999982, -0.0199999996, -4.47034826e-10
     16, -0.0199999996, -0.0199999996, -4.47034826e-10
     17, 0.0500000007, 0.0599999987, 0.0211500004
     18, 0.0399999991, 0.0599999987, 0.0211500004
     19, 0.0299999993, 0.0599999987, 0.0211500004
     20, 0.0199999996, 0.0599999987, 0.0211500004
** ... 392 like lines cut
*Element, type=DC3D8
 1,   5,  37, 158,  56,   1,  17, 133,  36
 2,  37,  38, 159, 158,  17,  18, 134, 133
 3,  38,  39, 160, 159,  18,  19, 135, 134
 4,  39,  40, 161, 160,  19,  20, 136, 135
 5,  40,  41, 162, 161,  20,  21, 137, 136
 6,  41,   6,  42, 162,  21,   2,  22, 137
 7,  56, 158, 163,  55,  36, 133, 138,  35
 8, 158, 159, 164, 163, 133, 134, 139, 138
 9, 159, 160, 165, 164, 134, 135, 140, 139
10, 160, 161, 166, 165, 135, 136, 141, 140
11, 161, 162, 167, 166, 136, 137, 142, 141
12, 162,  42,  43, 167, 137,  22,  23, 142
13,  55, 163, 168,  54,  35, 138, 143,  34
14, 163, 164, 169, 168, 138, 139, 144, 143
15, 164, 165, 170, 169, 139, 140, 145, 144
16, 165, 166, 171, 170, 140, 141, 146, 145
17, 166, 167, 172, 171, 141, 142, 147, 146
18, 167,  43,  44, 172, 142,  23,  24, 147
19,  54, 168, 173,  53,  34, 143, 148,  33
20, 168, 169, 174, 173, 143, 144, 149, 148
** ... 216 like lines cut
*Nset, nset=addelement
   1,   2,   3,   4,  17,  18,  19,  20,  21,  22,  23,  24,  25,  26,  27,  28
  29,  30,  31,  32,  33,  34,  35,  36, 133, 134, 135, 136, 137, 138, 139, 140
 141, 142, 143, 144, 145, 146, 147, 148, 149, 150, 151, 152, 153, 154, 155, 156
 157,
*Elset, elset=addelement, generate
  1,  36,   1
*Nset, nset=Set-2, generate
   1,  412,    1
*Elset, elset=Set-2, generate
   1,  236,    1
** Section: Section-1
*Solid Section, elset=Set-2, material=Material-1
,
*End Part
**  
**
** ASSEMBLY
**
*Assembly, name=Assembly
**  
*Instance, name=thermal-1, part=thermal
*End Instance
**  
*Nset, nset=Set-1, instance=thermal-1
  13,  14,  15,  16,  97,  98,  99, 100, 101, 102, 103, 104, 105, 106, 107, 108
 109, 110, 111, 112, 113, 114, 115, 116, 117, 118, 119, 120, 121, 122, 123, 124
 125, 126, 127, 128, 129, 130, 131, 132, 215, 216, 217, 218, 219, 220, 221, 222
 223, 224, 225, 226, 227, 228, 229, 230, 231, 232, 233, 234, 235, 236, 237, 238
 239, 240, 241, 242, 243, 244, 245, 246, 247, 248, 249, 250, 251, 252, 253, 254
 255, 256, 257, 258, 259, 260, 261, 262, 263, 264, 265, 266, 267, 268, 269, 270
 271, 272, 273, 274, 275, 276, 277, 278, 279, 280, 281, 282, 283, 284, 285, 286
 287, 288, 289, 290, 291, 292, 293, 294, 295
*Elset, elset=Set-1, instance=thermal-1, generate
 137,  236,    1
*Elset, elset=Set-2, instance=thermal-1, generate
  1,  36,   1
*Nset, nset=Set-6, instance=thermal-1, generate
   1,  412,    1
*Elset, elset=Set-6, instance=thermal-1, generate
   1,  236,    1
*Elset, elset=_AM-Model-1__AllBuildParts__, internal, instance=thermal-1, generate
   1,  236,    1
*Elset, elset=addelement, instance=thermal-1, generate
  1,  36,   1
*Nset, nset=all_nodes, instance=thermal-1, generate
   1,  412,    1
*ELEMENT PROGRESSIVE ACTIVATION,NAME="__AM-Model-1_Material Source -1_EPA__",ELSET=addelement,FOLLOW=No
*End Assembly
** 
** MATERIALS
** 
*Material, name=Material-1
*Conductivity
120., 3.39
121., 6.79
121., 10.2
122., 13.6
123.,  17.
123., 20.4
124., 23.8
125., 27.1
125., 30.5
126., 33.9
127., 37.3
127., 40.7
128., 44.1
128., 47.5
129., 50.9
129., 54.3
130., 57.7
131., 61.1
132., 64.5
133., 67.9
** ... 229 like lines cut
*Density
2823.,
*Elastic
  7.3e+10,  0.3,   0.
  7.3e+10,  0.3, 1.55
  7.3e+10,  0.3, 3.11
  7.3e+10,  0.3, 4.66
  7.3e+10,  0.3, 6.22
  7.3e+10,  0.3, 6.99
 7.28e+10,  0.3, 8.55
 7.28e+10,  0.3, 10.1
 7.28e+10,  0.3, 10.9
 7.28e+10,  0.3, 12.4
 7.28e+10,  0.3, 13.2
 7.28e+10,  0.3, 14.8
 7.25e+10,  0.3, 16.3
 7.25e+10,  0.3, 17.9
 7.25e+10,  0.3, 18.7
 7.25e+10,  0.3, 20.2
 7.25e+10,  0.3,  21.
 7.25e+10,  0.3, 22.5
 7.23e+10,  0.3, 24.1
 7.23e+10,  0.3, 25.6
** ... 401 like lines cut
*Expansion
 2.24e-05,100.
 2.25e-05,103.
 2.25e-05,104.
 2.25e-05,105.
 2.25e-05,106.
 2.25e-05,107.
 2.25e-05,108.
 2.25e-05,109.
 2.25e-05,110.
 2.26e-05,111.
 2.26e-05,112.
 2.26e-05,113.
 2.26e-05,114.
 2.26e-05,115.
 2.26e-05,116.
 2.26e-05,117.
 2.26e-05,118.
 2.27e-05,119.
 2.27e-05,120.
 2.27e-05,121.
** ... 227 like lines cut
*Latent Heat
374000.,543.,643.
*Plastic
 2.35e+08,       0.,      20.
 2.54e+08,  0.00676,      20.
 1.17e+08,       0.,     316.
 1.38e+08, 0.007759,     316.
  4.1e+07,       0.,     371.
 6.11e+07, 0.009024,     371.
 4.83e+06,       0.,     550.
 8.04e+06,  0.00941,     550.
*Specific Heat
 862.,  50.
 864., 53.5
 865., 56.9
 870., 60.4
 873., 63.8
 879., 67.3
 882., 70.8
 884., 74.2
 890., 77.7
 892., 81.2
 893., 84.6
 899., 88.1
 903., 91.5
 907.,  95.
 909., 98.5
 913., 102.
 917., 105.
 918., 112.
 920., 116.
 921., 119.
** ... 161 like lines cut
** 
** PHYSICAL CONSTANTS
** 
*Physical Constants, absolute zero=-273.15, stefan boltzmann=5.67e-08
** 
** BOUNDARY CONDITIONS
** 
** Name: substrate Type: Displacement/Rotation
*Boundary
Set-1, 1, 1
Set-1, 2, 2
Set-1, 3, 3
Set-1, 4, 4
Set-1, 5, 5
Set-1, 6, 6
**------------------------------------------------------------
**--------Table Types Defined in the Abaqus AM-Interface------
**------------------------------------------------------------
*PROPERTY TABLE TYPE, NAME = "ABQ_AM.AbsorptionCoeff" , PROPERTIES = 1
"AbsorptionCoeff", Unitless
*PROPERTY TABLE TYPE, NAME = "ABQ_AM.EnclosureAmbientTemp" , PROPERTIES = 1
"VATTemperature", 
*PARAMETER TABLE TYPE, NAME = "ABQ_AM.MovingHeatSource" , PARAMETERS = 2
STRING,,"Event Series","Laser Event Series",
STRING,,Concentrated|Uniform|Goldak,"Energy Distribution",
*PARAMETER TABLE TYPE, NAME = "ABQ_AM.MaterialDeposition.Advanced" , PARAMETERS = 3
STRING,Partial,Full|Partial,"Activation Type",
FLOAT,0.0,,"Activation Threshold",
FLOAT,1.0,,"Max Volume fraction",
*PARAMETER TABLE TYPE, NAME = "ABQ_AM.MovingHeatSource.Uniform" , PARAMETERS = 9
INTEGER,,,"SubDivX",
INTEGER,,,"SubDivY",
INTEGER,,,"SubDivZ",
FLOAT,,,"offset1",
FLOAT,,,"offset2",
FLOAT,,,"offset3",
FLOAT,,,"BoxLength1",
FLOAT,,,"BoxLength2",
FLOAT,,,"BoxLength3",
*PARAMETER TABLE TYPE, NAME = "ABQ_AM.MovingHeatSource.Goldak" , PARAMETERS = 10
INTEGER,,,"SubDivX",
INTEGER,,,"SubDivY",
INTEGER,,,"SubDivZ",
FLOAT,,,"a",
FLOAT,,,"b",
FLOAT,,,"cf",
FLOAT,,,"cr",
FLOAT,,,"ff",
FLOAT,,,"fr",
FLOAT,,,"BoxSizeFactor",
*PARAMETER TABLE TYPE, NAME = "ABQ_AM.MovingHeatSource.Advanced" , PARAMETERS = 7
STRING,False,True|False,"Conserve Total Energy",
STRING,False,True|False,"Control increment size",
STRING,Relative,Absolute|Relative,"Offset type",
FLOAT,0.0,,"LaserVectorX",
FLOAT,0.0,,"LaserVectorY",
FLOAT,-1.0,,"LaserVectorZ",
FLOAT,1.0,,"Field factor",
*PARAMETER TABLE TYPE, NAME = "ABQ_AM.MaterialDeposition.Bead" , PARAMETERS = 5
STRING,Z,X|Y|Z,"Stack Direction",
FLOAT,,,"Bead Height",
FLOAT,,,"Bead Width",
FLOAT,,,"Activation Offset",
STRING,,Below|Above,"Deposition Position",
*PARAMETER TABLE TYPE, NAME = "ABQ_AM.MaterialDeposition" , PARAMETERS = 2
STRING,,"Event Series","Material Event Series",
STRING,,Roller|Bead,"Deposition Process",
*Event Series Type, FIELDS = 1, NAME = "ABQ_AM.MaterialDeposition"
"On and off", Unitless
*Event Series Type, FIELDS = 1, NAME = "ABQ_AM.PowerMagnitude"
"Power", ML2T03
**------------------------------------------------------------
**-------Event Series defined in the Abaqus AM-Interface------
**------------------------------------------------------------
*EVENT SERIES, NAME = "material path" , TIME =TOTAL TIME, 
	TYPE = "ABQ_AM.MaterialDeposition",
	INPUT = "material_input.txt"
*EVENT SERIES, NAME = "heat pathj" , TIME =TOTAL TIME, 
	TYPE = "ABQ_AM.MaterialDeposition",
	INPUT = "heat_input.txt"
**------------------------------------------------------------
**-----Table Collections defined in the Abaqus AM-Interface---
**------------------------------------------------------------
*TABLE COLLECTION, NAME = ABQ_AM_material
*PARAMETER TABLE, TYPE = "ABQ_AM.MaterialDeposition.Bead"
"Z", 0.00115, 0.02, 0.005, "Below"
*PARAMETER TABLE, TYPE = "ABQ_AM.MaterialDeposition"
"material path", "Bead"
*PARAMETER TABLE, TYPE = "ABQ_AM.MaterialDeposition.Advanced"
"Full", 0.0, 0
*TABLE COLLECTION, NAME = ABQ_AM_heat
*PROPERTY TABLE, TYPE = "ABQ_AM.AbsorptionCoeff"
**tempDependency = OFF
0.9
*PARAMETER TABLE, TYPE = "ABQ_AM.MovingHeatSource.Advanced"
"False", "False", "Relative", 0.0, 0.0, -1.0, 1.0
*PARAMETER TABLE, TYPE = "ABQ_AM.MovingHeatSource"
"heat pathj", "Goldak"
*PARAMETER TABLE, TYPE = "ABQ_AM.MovingHeatSource.Goldak"
9, 9, 9, 0.02, 0.001725, 0.002, 0.004, 0.6, 1.4, 1
** 
** PREDEFINED FIELDS
** 
** Name: Predefined Field-1   Type: Temperature
*Initial Conditions, type=TEMPERATURE
Set-6, 20.
** ----------------------------------------------------------------
** 
** STEP: heat
** 
*Step, name=heat, nlgeom=NO, inc=100000
*Heat Transfer, end=PERIOD, deltmx=1000., mxdem=1.
0.001, 10., 1e-06, 0.1, 
*ACTIVATE ELEMENTS , ACTIVATION = "__AM-Model-1_Material Source -1_EPA__"
ABQ_AM_material
*DFLUX
_AM-Model-1__AllBuildParts__ , MBFNU , 1 , ABQ_AM_heat
*FILM
thermal-1.Set-2 , FFS , 20 , 8.5
*FILM
thermal-1.Set-2 , FFS , 20 , 167
*RADIATE
thermal-1.Set-2 , RFS , 20 , 0.8
*RADIATE
thermal-1.Set-2 , RFS , 20 , 0.8
** 
** OUTPUT REQUESTS
** 
*Restart, write, frequency=0
** 
** FIELD OUTPUT: F-Output-1
** 
*Output, field
*Node Output
CFL, NT, RFL, RFLE
*Element Output, directions=YES
FILMCOEF, FLUXS, HBF, HFL, NFLUX, SINKTEMP, TEMP
*Contact Output
HFLA, HTL, HTLA, SJD, SJDA, SJDT, SJDTA, WEIGHT
*Radiation Output
FTEMP, RADFL, RADFLA, RADTL, RADTLA, VFTOT
** 
** HISTORY OUTPUT: H-Output-1
** 
*Output, history
*Contact Output
HFLA, HTL, HTLA, SJD, SJDA, SJDT, SJDTA, WEIGHT
*Radiation Output
FTEMP, RADFL, RADFLA, RADTL, RADTLA, VFTOT
*OUTPUT,FIELD,FREQ=1
*ELEMENT OUTPUT
EACTIVE
*End Step
