 Abaqus/Standard 3DEXPERIENCE R2019x                  DATE 24-sep-2020 TIME 16:38:06
 SUMMARY OF JOB INFORMATION:
 STEP  INC ATT SEVERE EQUIL TOTAL  TOTAL      STEP       INC OF       DOF    IF
               DISCON ITERS ITERS  TIME/    TIME/LPF    TIME/LPF    MONITOR RIKS
               ITERS               FREQ
   1     1   1     0     1     1  0.00100    0.00100    0.001000  
   1     2   1     0     1     1  0.00200    0.00200    0.001000  
   1     3   1     0     1     1  0.00300    0.00300    0.001000  
   1     4   1     0     1     1  0.00500    0.00500    0.002000  
   1     5   1     0     1     1  0.00900    0.00900    0.004000  
   1     6   1     0     2     2  0.0170     0.0170     0.008000  
   1     7   1     0     2     2  0.0290     0.0290     0.01200   
   1     8   1     0     2     2  0.0470     0.0470     0.01800   
   1     9   1     0     2     2  0.0740     0.0740     0.02700   
   1    10   1     0     2     2  0.115      0.115      0.04050   
   1    11   1     0     3     3  0.175      0.175      0.06075   
   1    12   1     0     2     2  0.266      0.266      0.09113   
   1    13   1     0     2     2  0.366      0.366      0.1000    
   1    14   1     0     2     2  0.466      0.466      0.1000    
   1    15   1     0     2     2  0.566      0.566      0.1000    
   1    16   1     0     3     3  0.666      0.666      0.1000    
   1    17   1     0     2     2  0.766      0.766      0.1000    
   1    18   1     0     3     3  0.866      0.866      0.1000    
   1    19   1     0     2     2  0.966      0.966      0.1000    
   1    20   1     0     2     2  1.07       1.07       0.1000    
   1    21   1     0     3     3  1.17       1.17       0.1000    
   1    22   1     0     2     2  1.27       1.27       0.1000    
   1    23   1     0     2     2  1.37       1.37       0.1000    
   1    24   1     0     2     2  1.47       1.47       0.1000    
   1    25   1     0     2     2  1.57       1.57       0.1000    
   1    26   1     0     2     2  1.67       1.67       0.1000    
   1    27   1     0     2     2  1.77       1.77       0.1000    
   1    28   1     0     3     3  1.87       1.87       0.1000    
   1    29   1     0     2     2  1.97       1.97       0.1000    
   1    30   1     0     2     2  2.07       2.07       0.1000    
   1    31   1     0     3     3  2.17       2.17       0.1000    
   1    32   1     0     2     2  2.27       2.27       0.1000    
   1    33   1     0     3     3  2.37       2.37       0.1000    
   1    34   1     0     2     2  2.47       2.47       0.1000    
   1    35   1     0     2     2  2.57       2.57       0.1000    
   1    36   1     0     2     2  2.67       2.67       0.1000    
   1    37   1     0     2     2  2.77       2.77       0.1000    
   1    38   1     0     3     3  2.87       2.87       0.1000    
   1    39   1     0     2     2  2.97       2.97       0.1000    
   1    40   1     0     2     2  3.07       3.07       0.1000    
   1    41   1     0     2     2  3.17       3.17       0.1000    
   1    42   1     0     2     2  3.27       3.27       0.1000    
   1    43   1     0     2     2  3.37       3.37       0.1000    
   1    44   1     0     2     2  3.47       3.47       0.1000    
   1    45   1     0     1     1  3.57       3.57       0.1000    
   1    46   1     0     1     1  3.67       3.67       0.1000    
   1    47   1     0     1     1  3.77       3.77       0.1000    
   1    48   1     0     1     1  3.87       3.87       0.1000    
   1    49   1     0     1     1  3.97       3.97       0.1000    
   1    50   1     0     2     2  4.07       4.07       0.1000    
   1    51   1     0     2     2  4.17       4.17       0.1000    
   1    52   1     0     1     1  4.27       4.27       0.1000    
   1    53   1     0     1     1  4.37       4.37       0.1000    
   1    54   1     0     1     1  4.47       4.47       0.1000    
   1    55   1     0     1     1  4.57       4.57       0.1000    
   1    56   1     0     1     1  4.67       4.67       0.1000    
   1    57   1     0     1     1  4.77       4.77       0.1000    
   1    58   1     0     1     1  4.87       4.87       0.1000    
   1    59   1     0     1     1  4.97       4.97       0.1000    
   1    60   1     0     1     1  5.07       5.07       0.1000    
   1    61   1     0     1     1  5.17       5.17       0.1000    
   1    62   1     0     1     1  5.27       5.27       0.1000    
   1    63   1     0     1     1  5.37       5.37       0.1000    
   1    64   1     0     1     1  5.47       5.47       0.1000    
   1    65   1     0     1     1  5.57       5.57       0.1000    
   1    66   1     0     1     1  5.67       5.67       0.1000    
   1    67   1     0     1     1  5.77       5.77       0.1000    
   1    68   1     0     1     1  5.87       5.87       0.1000    
   1    69   1     0     1     1  5.97       5.97       0.1000    
   1    70   1     0     1     1  6.07       6.07       0.1000    
   1    71   1     0     1     1  6.17       6.17       0.1000    
   1    72   1     0     1     1  6.27       6.27       0.1000    
   1    73   1     0     1     1  6.37       6.37       0.1000    
   1    74   1     0     1     1  6.47       6.47       0.1000    
   1    75   1     0     1     1  6.57       6.57       0.1000    
   1    76   1     0     1     1  6.67       6.67       0.1000    
   1    77   1     0     1     1  6.77       6.77       0.1000    
   1    78   1     0     1     1  6.87       6.87       0.1000    
   1    79   1     0     1     1  6.97       6.97       0.1000    
   1    80   1     0     1     1  7.07       7.07       0.1000    
   1    81   1     0     1     1  7.17       7.17       0.1000    
   1    82   1     0     1     1  7.27       7.27       0.1000    
   1    83   1     0     1     1  7.37       7.37       0.1000    
   1    84   1     0     1     1  7.47       7.47       0.1000    
   1    85   1     0     1     1  7.57       7.57       0.1000    
   1    86   1     0     1     1  7.67       7.67       0.1000    
   1    87   1     0     1     1  7.77       7.77       0.1000    
   1    88   1     0     1     1  7.87       7.87       0.1000    
   1    89   1     0     1     1  7.97       7.97       0.1000    
   1    90   1     0     1     1  8.07       8.07       0.1000    
   1    91   1     0     1     1  8.17       8.17       0.1000    
   1    92   1     0     1     1  8.27       8.27       0.1000    
   1    93   1     0     1     1  8.37       8.37       0.1000    
   1    94   1     0     1     1  8.47       8.47       0.1000    
   1    95   1     0     1     1  8.57       8.57       0.1000    
   1    96   1     0     1     1  8.67       8.67       0.1000    
   1    97   1     0     1     1  8.77       8.77       0.1000    
   1    98   1     0     1     1  8.87       8.87       0.1000    
   1    99   1     0     1     1  8.97       8.97       0.1000    
   1   100   1     0     1     1  9.07       9.07       0.1000    
   1   101   1     0     1     1  9.17       9.17       0.1000    
   1   102   1     0     1     1  9.27       9.27       0.1000    
   1   103   1     0     1     1  9.37       9.37       0.1000    
   1   104   1     0     1     1  9.47       9.47       0.1000    
   1   105   1     0     1     1  9.57       9.57       0.1000    
   1   106   1     0     1     1  9.67       9.67       0.1000    
   1   107   1     0     1     1  9.77       9.77       0.1000    
   1   108   1     0     1     1  9.87       9.87       0.1000    
   1   109   1     0     1     1  9.97       9.97       0.1000    
   1   110   1     0     1     1  10.0       10.0       0.03363   
                          
 THE ANALYSIS HAS COMPLETED SUCCESSFULLY
