 Abaqus/Standard 3DEXPERIENCE R2019x                  DATE 17-Sep-2020 TIME 19:11:44
 SUMMARY OF JOB INFORMATION:
 STEP  INC ATT SEVERE EQUIL TOTAL  TOTAL      STEP       INC OF       DOF    IF
               DISCON ITERS ITERS  TIME/    TIME/LPF    TIME/LPF    MONITOR RIKS
               ITERS               FREQ
   1     1   1     0     1     1  0.00100    0.00100    0.001000  
   1     2   1     0     1     1  0.00200    0.00200    0.001000  
   1     3   1     0     1     1  0.00300    0.00300    0.001000  
   1     4   1     0     1     1  0.00500    0.00500    0.002000  
   1     5   1     0     1     1  0.00900    0.00900    0.004000  
   1     6   1     0     1     1  0.0170     0.0170     0.008000  
   1     7   1     0     1     1  0.0330     0.0330     0.01600   
   1     8   1     0     1     1  0.0650     0.0650     0.03200   
   1     9   1     0     1     1  0.129      0.129      0.06400   
   1    10   1     0     1     1  0.229      0.229      0.1000    
   1    11   1     0     1     1  0.329      0.329      0.1000    
   1    12   1     0     1     1  0.429      0.429      0.1000    
   1    13   1     0     1     1  0.529      0.529      0.1000    
   1    14   1     0     1     1  0.629      0.629      0.1000    
   1    15   1     0     1     1  0.729      0.729      0.1000    
   1    16   1     0     1     1  0.829      0.829      0.1000    
   1    17   1     0     1     1  0.929      0.929      0.1000    
   1    18   1     0     1     1  1.03       1.03       0.1000    
   1    19   1     0     1     1  1.13       1.13       0.1000    
   1    20   1     0     1     1  1.23       1.23       0.1000    
   1    21   1     0     1     1  1.33       1.33       0.1000    
   1    22   1     0     1     1  1.43       1.43       0.1000    
   1    23   1     0     1     1  1.53       1.53       0.1000    
   1    24   1     0     1     1  1.63       1.63       0.1000    
   1    25   1     0     1     1  1.73       1.73       0.1000    
   1    26   1     0     1     1  1.83       1.83       0.1000    
   1    27   1     0     1     1  1.93       1.93       0.1000    
   1    28   1     0     1     1  2.03       2.03       0.1000    
   1    29   1     0     1     1  2.13       2.13       0.1000    
   1    30   1     0     1     1  2.23       2.23       0.1000    
   1    31   1     0     1     1  2.33       2.33       0.1000    
   1    32   1     0     1     1  2.43       2.43       0.1000    
   1    33   1     0     1     1  2.53       2.53       0.1000    
   1    34   1     0     1     1  2.63       2.63       0.1000    
   1    35   1     0     1     1  2.73       2.73       0.1000    
   1    36   1     0     1     1  2.83       2.83       0.1000    
   1    37   1     0     1     1  2.93       2.93       0.1000    
   1    38   1     0     1     1  3.03       3.03       0.1000    
   1    39   1     0     1     1  3.13       3.13       0.1000    
   1    40   1     0     1     1  3.23       3.23       0.1000    
   1    41   1     0     1     1  3.33       3.33       0.1000    
   1    42   1     0     1     1  3.43       3.43       0.1000    
   1    43   1     0     1     1  3.53       3.53       0.1000    
   1    44   1     0     1     1  3.63       3.63       0.1000    
   1    45   1     0     1     1  3.73       3.73       0.1000    
   1    46   1     0     1     1  3.83       3.83       0.1000    
   1    47   1     0     1     1  3.93       3.93       0.1000    
   1    48   1     0     1     1  4.03       4.03       0.1000    
   1    49   1     0     1     1  4.13       4.13       0.1000    
   1    50   1     0     1     1  4.23       4.23       0.1000    
   1    51   1     0     1     1  4.33       4.33       0.1000    
   1    52   1     0     1     1  4.43       4.43       0.1000    
   1    53   1     0     1     1  4.53       4.53       0.1000    
   1    54   1     0     1     1  4.63       4.63       0.1000    
   1    55   1     0     1     1  4.73       4.73       0.1000    
   1    56   1     0     1     1  4.83       4.83       0.1000    
   1    57   1     0     1     1  4.93       4.93       0.1000    
   1    58   1     0     1     1  5.03       5.03       0.1000    
   1    59   1     0     1     1  5.13       5.13       0.1000    
   1    60   1     0     1     1  5.23       5.23       0.1000    
   1    61   1     0     1     1  5.33       5.33       0.1000    
   1    62   1     0     1     1  5.43       5.43       0.1000    
   1    63   1     0     1     1  5.53       5.53       0.1000    
   1    64   1     0     1     1  5.63       5.63       0.1000    
   1    65   1     0     1     1  5.73       5.73       0.1000    
   1    66   1     0     1     1  5.83       5.83       0.1000    
   1    67   1     0     1     1  5.93       5.93       0.1000    
   1    68   1     0     1     1  6.03       6.03       0.1000    
   1    69   1     0     1     1  6.13       6.13       0.1000    
   1    70   1     0     1     1  6.23       6.23       0.1000    
   1    71   1     0     1     1  6.33       6.33       0.1000    
   1    72   1     0     1     1  6.43       6.43       0.1000    
   1    73   1     0     1     1  6.53       6.53       0.1000    
   1    74   1     0     1     1  6.63       6.63       0.1000    
   1    75   1     0     1     1  6.73       6.73       0.1000    
   1    76   1     0     1     1  6.83       6.83       0.1000    
   1    77   1     0     1     1  6.93       6.93       0.1000    
   1    78   1     0     1     1  7.03       7.03       0.1000    
   1    79   1     0     1     1  7.13       7.13       0.1000    
   1    80   1     0     1     1  7.23       7.23       0.1000    
   1    81   1     0     1     1  7.33       7.33       0.1000    
   1    82   1     0     1     1  7.43       7.43       0.1000    
   1    83   1     0     1     1  7.53       7.53       0.1000    
   1    84   1     0     1     1  7.63       7.63       0.1000    
   1    85   1     0     1     1  7.73       7.73       0.1000    
   1    86   1     0     1     1  7.83       7.83       0.1000    
   1    87   1     0     1     1  7.93       7.93       0.1000    
   1    88   1     0     1     1  8.03       8.03       0.1000    
   1    89   1     0     1     1  8.13       8.13       0.1000    
   1    90   1     0     1     1  8.23       8.23       0.1000    
   1    91   1     0     1     1  8.33       8.33       0.1000    
   1    92   1     0     1     1  8.43       8.43       0.1000    
   1    93   1     0     1     1  8.53       8.53       0.1000    
   1    94   1     0     1     1  8.63       8.63       0.1000    
   1    95   1     0     1     1  8.73       8.73       0.1000    
   1    96   1     0     1     1  8.83       8.83       0.1000    
   1    97   1     0     1     1  8.93       8.93       0.1000    
   1    98   1     0     1     1  9.03       9.03       0.1000    
   1    99   1     0     1     1  9.13       9.13       0.1000    
   1   100   1     0     1     1  9.23       9.23       0.1000    
   1   101   1     0     1     1  9.33       9.33       0.1000    
   1   102   1     0     1     1  9.43       9.43       0.1000    
   1   103   1     0     1     1  9.53       9.53       0.1000    
   1   104   1     0     1     1  9.63       9.63       0.1000    
   1   105   1     0     1     1  9.73       9.73       0.1000    
   1   106   1     0     1     1  9.83       9.83       0.1000    
   1   107   1     0     1     1  9.93       9.93       0.1000    
   1   108   1     0     1     1  10.0       10.0       0.1000    
   1   109   1     0     1     1  10.1       10.1       0.1000    
   1   110   1     0     1     1  10.2       10.2       0.1000    
   1   111   1     0     1     1  10.3       10.3       0.1000    
   1   112   1     0     1     1  10.4       10.4       0.1000    
   1   113   1     0     1     1  10.5       10.5       0.1000    
   1   114   1     0     1     1  10.6       10.6       0.1000    
   1   115   1     0     1     1  10.7       10.7       0.1000    
   1   116   1     0     1     1  10.8       10.8       0.1000    
   1   117   1     0     1     1  10.9       10.9       0.1000    
   1   118   1     0     1     1  11.0       11.0       0.1000    
   1   119   1     0     1     1  11.1       11.1       0.1000    
   1   120   1     0     1     1  11.2       11.2       0.1000    
   1   121   1     0     1     1  11.3       11.3       0.1000    
   1   122   1     0     1     1  11.4       11.4       0.1000    
   1   123   1     0     1     1  11.5       11.5       0.1000    
   1   124   1     0     1     1  11.6       11.6       0.1000    
   1   125   1     0     1     1  11.7       11.7       0.1000    
   1   126   1     0     1     1  11.8       11.8       0.1000    
   1   127   1     0     1     1  11.9       11.9       0.1000    
   1   128   1     0     1     1  12.0       12.0       0.1000    
   1   129   1     0     1     1  12.1       12.1       0.1000    
   1   130   1     0     1     1  12.2       12.2       0.1000    
   1   131   1     0     1     1  12.3       12.3       0.1000    
   1   132   1     0     1     1  12.4       12.4       0.1000    
   1   133   1     0     1     1  12.5       12.5       0.1000    
   1   134   1     0     1     1  12.6       12.6       0.1000    
   1   135   1     0     1     1  12.7       12.7       0.1000    
   1   136   1     0     1     1  12.8       12.8       0.1000    
   1   137   1     0     1     1  12.9       12.9       0.1000    
   1   138   1     0     1     1  13.0       13.0       0.1000    
   1   139   1     0     1     1  13.1       13.1       0.1000    
   1   140   1     0     1     1  13.2       13.2       0.1000    
   1   141   1     0     1     1  13.3       13.3       0.1000    
   1   142   1     0     1     1  13.4       13.4       0.1000    
   1   143   1     0     1     1  13.5       13.5       0.1000    
   1   144   1     0     1     1  13.6       13.6       0.1000    
   1   145   1     0     1     1  13.7       13.7       0.1000    
   1   146   1     0     1     1  13.8       13.8       0.1000    
   1   147   1     0     1     1  13.9       13.9       0.1000    
   1   148   1     0     1     1  14.0       14.0       0.1000    
   1   149   1     0     1     1  14.1       14.1       0.1000    
   1   150   1     0     1     1  14.2       14.2       0.1000    
   1   151   1     0     1     1  14.3       14.3       0.1000    
   1   152   1     0     1     1  14.4       14.4       0.1000    
   1   153   1     0     1     1  14.5       14.5       0.1000    
   1   154   1     0     1     1  14.6       14.6       0.1000    
   1   155   1     0     1     1  14.7       14.7       0.1000    
   1   156   1     0     1     1  14.8       14.8       0.1000    
   1   157   1     0     1     1  14.9       14.9       0.1000    
   1   158   1     0     1     1  15.0       15.0       0.1000    
   1   159   1     0     1     1  15.1       15.1       0.1000    
   1   160   1     0     1     1  15.2       15.2       0.1000    
   1   161   1     0     1     1  15.3       15.3       0.1000    
   1   162   1     0     1     1  15.4       15.4       0.1000    
   1   163   1     0     1     1  15.5       15.5       0.1000    
   1   164   1     0     1     1  15.6       15.6       0.1000    
   1   165   1     0     1     1  15.7       15.7       0.1000    
   1   166   1     0     1     1  15.8       15.8       0.1000    
   1   167   1     0     1     1  15.9       15.9       0.1000    
   1   168   1     0     1     1  16.0       16.0       0.1000    
   1   169   1     0     1     1  16.1       16.1       0.1000    
   1   170   1     0     1     1  16.2       16.2       0.1000    
   1   171   1     0     1     1  16.3       16.3       0.1000    
   1   172   1     0     1     1  16.4       16.4       0.1000    
   1   173   1     0     1     1  16.5       16.5       0.1000    
   1   174   1     0     1     1  16.6       16.6       0.1000    
   1   175   1     0     1     1  16.7       16.7       0.1000    
   1   176   1     0     1     1  16.8       16.8       0.1000    
   1   177   1     0     1     1  16.9       16.9       0.1000    
   1   178   1     0     1     1  17.0       17.0       0.1000    
   1   179   1     0     1     1  17.1       17.1       0.1000    
   1   180   1     0     1     1  17.2       17.2       0.1000    
   1   181   1     0     1     1  17.3       17.3       0.1000    
   1   182   1     0     1     1  17.4       17.4       0.1000    
   1   183   1     0     1     1  17.5       17.5       0.1000    
   1   184   1     0     1     1  17.6       17.6       0.1000    
   1   185   1     0     1     1  17.7       17.7       0.1000    
   1   186   1     0     1     1  17.8       17.8       0.1000    
   1   187   1     0     1     1  17.9       17.9       0.1000    
   1   188   1     0     1     1  18.0       18.0       0.1000    
   1   189   1     0     1     1  18.1       18.1       0.1000    
   1   190   1     0     1     1  18.2       18.2       0.1000    
   1   191   1     0     1     1  18.3       18.3       0.1000    
   1   192   1     0     1     1  18.4       18.4       0.1000    
   1   193   1     0     1     1  18.5       18.5       0.1000    
   1   194   1     0     1     1  18.6       18.6       0.1000    
   1   195   1     0     1     1  18.7       18.7       0.1000    
   1   196   1     0     1     1  18.8       18.8       0.1000    
   1   197   1     0     1     1  18.9       18.9       0.1000    
   1   198   1     0     1     1  19.0       19.0       0.1000    
   1   199   1     0     1     1  19.1       19.1       0.1000    
   1   200   1     0     1     1  19.2       19.2       0.1000    
   1   201   1     0     1     1  19.3       19.3       0.1000    
   1   202   1     0     1     1  19.4       19.4       0.1000    
   1   203   1     0     1     1  19.5       19.5       0.1000    
   1   204   1     0     1     1  19.6       19.6       0.1000    
   1   205   1     0     1     1  19.7       19.7       0.1000    
   1   206   1     0     1     1  19.8       19.8       0.1000    
   1   207   1     0     1     1  19.9       19.9       0.1000    
   1   208   1     0     1     1  20.0       20.0       0.1000    
   1   209   1     0     1     1  20.1       20.1       0.1000    
   1   210   1     0     1     1  20.2       20.2       0.1000    
   1   211   1     0     1     1  20.3       20.3       0.1000    
   1   212   1     0     1     1  20.4       20.4       0.1000    
   1   213   1     0     1     1  20.5       20.5       0.1000    
   1   214   1     0     1     1  20.6       20.6       0.1000    
   1   215   1     0     1     1  20.7       20.7       0.1000    
   1   216   1     0     1     1  20.8       20.8       0.1000    
   1   217   1     0     1     1  20.9       20.9       0.1000    
   1   218   1     0     1     1  21.0       21.0       0.1000    
   1   219   1     0     1     1  21.1       21.1       0.1000    
   1   220   1     0     1     1  21.2       21.2       0.1000    
   1   221   1     0     1     1  21.3       21.3       0.1000    
   1   222   1     0     1     1  21.4       21.4       0.1000    
   1   223   1     0     1     1  21.5       21.5       0.1000    
   1   224   1     0     1     1  21.6       21.6       0.1000    
   1   225   1     0     1     1  21.7       21.7       0.1000    
   1   226   1     0     1     1  21.8       21.8       0.1000    
   1   227   1     0     1     1  21.9       21.9       0.1000    
   1   228   1     0     1     1  22.0       22.0       0.1000    
   1   229   1     0     1     1  22.1       22.1       0.1000    
   1   230   1     0     1     1  22.2       22.2       0.1000    
   1   231   1     0     1     1  22.3       22.3       0.1000    
   1   232   1     0     1     1  22.4       22.4       0.1000    
   1   233   1     0     1     1  22.5       22.5       0.1000    
   1   234   1     0     1     1  22.6       22.6       0.1000    
   1   235   1     0     1     1  22.7       22.7       0.1000    
   1   236   1     0     1     1  22.8       22.8       0.1000    
   1   237   1     0     1     1  22.9       22.9       0.1000    
   1   238   1     0     1     1  23.0       23.0       0.1000    
   1   239   1     0     1     1  23.1       23.1       0.1000    
   1   240   1     0     1     1  23.2       23.2       0.1000    
   1   241   1     0     1     1  23.3       23.3       0.1000    
   1   242   1     0     1     1  23.4       23.4       0.1000    
   1   243   1     0     1     1  23.5       23.5       0.1000    
   1   244   1     0     1     1  23.6       23.6       0.1000    
   1   245   1     0     1     1  23.7       23.7       0.1000    
   1   246   1     0     1     1  23.8       23.8       0.1000    
   1   247   1     0     1     1  23.9       23.9       0.1000    
   1   248   1     0     1     1  24.0       24.0       0.1000    
   1   249   1     0     1     1  24.1       24.1       0.1000    
   1   250   1     0     1     1  24.2       24.2       0.1000    
   1   251   1     0     1     1  24.3       24.3       0.1000    
   1   252   1     0     1     1  24.4       24.4       0.1000    
   1   253   1     0     1     1  24.5       24.5       0.1000    
   1   254   1     0     1     1  24.6       24.6       0.1000    
   1   255   1     0     1     1  24.7       24.7       0.1000    
   1   256   1     0     1     1  24.8       24.8       0.1000    
   1   257   1     0     1     1  24.9       24.9       0.1000    
   1   258   1     0     1     1  25.0       25.0       0.1000    
   1   259   1     0     1     1  25.1       25.1       0.1000    
   1   260   1     0     1     1  25.2       25.2       0.1000    
   1   261   1     0     1     1  25.3       25.3       0.1000    
   1   262   1     0     1     1  25.4       25.4       0.1000    
   1   263   1     0     1     1  25.5       25.5       0.1000    
   1   264   1     0     1     1  25.6       25.6       0.1000    
   1   265   1     0     1     1  25.7       25.7       0.1000    
   1   266   1     0     1     1  25.8       25.8       0.1000    
   1   267   1     0     1     1  25.9       25.9       0.1000    
   1   268   1     0     1     1  26.0       26.0       0.1000    
   1   269   1     0     1     1  26.1       26.1       0.1000    
   1   270   1     0     1     1  26.2       26.2       0.1000    
   1   271   1     0     1     1  26.3       26.3       0.1000    
   1   272   1     0     1     1  26.4       26.4       0.1000    
   1   273   1     0     1     1  26.5       26.5       0.1000    
   1   274   1     0     1     1  26.6       26.6       0.1000    
   1   275   1     0     1     1  26.7       26.7       0.1000    
   1   276   1     0     1     1  26.8       26.8       0.1000    
   1   277   1     0     1     1  26.9       26.9       0.1000    
   1   278   1     0     1     1  27.0       27.0       0.1000    
   1   279   1     0     1     1  27.1       27.1       0.1000    
   1   280   1     0     1     1  27.2       27.2       0.1000    
   1   281   1     0     1     1  27.3       27.3       0.1000    
   1   282   1     0     1     1  27.4       27.4       0.1000    
   1   283   1     0     1     1  27.5       27.5       0.1000    
   1   284   1     0     1     1  27.6       27.6       0.1000    
   1   285   1     0     1     1  27.7       27.7       0.1000    
   1   286   1     0     1     1  27.8       27.8       0.1000    
   1   287   1     0     1     1  27.9       27.9       0.1000    
   1   288   1     0     1     1  28.0       28.0       0.1000    
   1   289   1     0     1     1  28.1       28.1       0.1000    
   1   290   1     0     1     1  28.2       28.2       0.1000    
   1   291   1     0     1     1  28.3       28.3       0.1000    
   1   292   1     0     1     1  28.4       28.4       0.1000    
   1   293   1     0     1     1  28.5       28.5       0.1000    
   1   294   1     0     1     1  28.6       28.6       0.1000    
   1   295   1     0     1     1  28.7       28.7       0.1000    
   1   296   1     0     1     1  28.8       28.8       0.1000    
   1   297   1     0     1     1  28.9       28.9       0.1000    
   1   298   1     0     1     1  29.0       29.0       0.1000    
   1   299   1     0     1     1  29.1       29.1       0.1000    
   1   300   1     0     1     1  29.2       29.2       0.1000    
   1   301   1     0     1     1  29.3       29.3       0.1000    
   1   302   1     0     1     1  29.4       29.4       0.1000    
   1   303   1     0     1     1  29.5       29.5       0.1000    
   1   304   1     0     1     1  29.6       29.6       0.1000    
   1   305   1     0     1     1  29.7       29.7       0.1000    
   1   306   1     0     1     1  29.8       29.8       0.1000    
   1   307   1     0     1     1  29.9       29.9       0.1000    
   1   308   1     0     1     1  30.0       30.0       0.1000    
   1   309   1     0     1     1  30.1       30.1       0.1000    
   1   310   1     0     1     1  30.2       30.2       0.1000    
   1   311   1     0     1     1  30.3       30.3       0.1000    
   1   312   1     0     1     1  30.4       30.4       0.1000    
   1   313   1     0     1     1  30.5       30.5       0.1000    
   1   314   1     0     1     1  30.6       30.6       0.1000    
   1   315   1     0     1     1  30.7       30.7       0.1000    
   1   316   1     0     1     1  30.8       30.8       0.1000    
   1   317   1     0     1     1  30.9       30.9       0.1000    
   1   318   1     0     1     1  31.0       31.0       0.1000    
   1   319   1     0     1     1  31.1       31.1       0.1000    
   1   320   1     0     1     1  31.2       31.2       0.1000    
   1   321   1     0     1     1  31.3       31.3       0.1000    
   1   322   1     0     1     1  31.4       31.4       0.1000    
   1   323   1     0     1     1  31.5       31.5       0.1000    
   1   324   1     0     1     1  31.6       31.6       0.1000    
   1   325   1     0     1     1  31.7       31.7       0.1000    
   1   326   1     0     1     1  31.8       31.8       0.1000    
   1   327   1     0     1     1  31.9       31.9       0.1000    
   1   328   1     0     1     1  32.0       32.0       0.1000    
   1   329   1     0     1     1  32.1       32.1       0.1000    
   1   330   1     0     1     1  32.2       32.2       0.1000    
   1   331   1     0     1     1  32.3       32.3       0.1000    
   1   332   1     0     1     1  32.4       32.4       0.1000    
   1   333   1     0     1     1  32.5       32.5       0.1000    
   1   334   1     0     1     1  32.6       32.6       0.1000    
   1   335   1     0     1     1  32.7       32.7       0.1000    
   1   336   1     0     1     1  32.8       32.8       0.1000    
   1   337   1     0     1     1  32.9       32.9       0.1000    
   1   338   1     0     1     1  33.0       33.0       0.1000    
   1   339   1     0     1     1  33.1       33.1       0.1000    
   1   340   1     0     1     1  33.2       33.2       0.1000    
   1   341   1     0     1     1  33.3       33.3       0.1000    
   1   342   1     0     1     1  33.4       33.4       0.1000    
   1   343   1     0     1     1  33.5       33.5       0.1000    
   1   344   1     0     1     1  33.6       33.6       0.1000    
   1   345   1     0     1     1  33.7       33.7       0.1000    
   1   346   1     0     1     1  33.8       33.8       0.1000    
   1   347   1     0     1     1  33.9       33.9       0.1000    
   1   348   1     0     1     1  34.0       34.0       0.1000    
   1   349   1     0     1     1  34.1       34.1       0.1000    
   1   350   1     0     1     1  34.2       34.2       0.1000    
   1   351   1     0     1     1  34.3       34.3       0.1000    
   1   352   1     0     1     1  34.4       34.4       0.1000    
   1   353   1     0     1     1  34.5       34.5       0.1000    
   1   354   1     0     1     1  34.6       34.6       0.1000    
   1   355   1     0     1     1  34.7       34.7       0.1000    
   1   356   1     0     1     1  34.8       34.8       0.1000    
   1   357   1     0     1     1  34.9       34.9       0.1000    
   1   358   1     0     1     1  35.0       35.0       0.1000    
   1   359   1     0     1     1  35.1       35.1       0.1000    
   1   360   1     0     1     1  35.2       35.2       0.1000    
   1   361   1     0     1     1  35.3       35.3       0.1000    
   1   362   1     0     1     1  35.4       35.4       0.1000    
   1   363   1     0     1     1  35.5       35.5       0.1000    
   1   364   1     0     1     1  35.6       35.6       0.1000    
   1   365   1     0     1     1  35.7       35.7       0.1000    
   1   366   1     0     1     1  35.8       35.8       0.1000    
   1   367   1     0     1     1  35.9       35.9       0.1000    
   1   368   1     0     1     1  36.0       36.0       0.1000    
   1   369   1     0     1     1  36.1       36.1       0.1000    
   1   370   1     0     1     1  36.2       36.2       0.1000    
   1   371   1     0     1     1  36.3       36.3       0.1000    
   1   372   1     0     1     1  36.4       36.4       0.1000    
   1   373   1     0     1     1  36.5       36.5       0.1000    
   1   374   1     0     1     1  36.6       36.6       0.1000    
   1   375   1     0     1     1  36.7       36.7       0.1000    
   1   376   1     0     1     1  36.8       36.8       0.1000    
   1   377   1     0     1     1  36.9       36.9       0.1000    
   1   378   1     0     1     1  37.0       37.0       0.1000    
   1   379   1     0     1     1  37.1       37.1       0.1000    
   1   380   1     0     1     1  37.2       37.2       0.1000    
   1   381   1     0     1     1  37.3       37.3       0.1000    
   1   382   1     0     1     1  37.4       37.4       0.1000    
   1   383   1     0     1     1  37.5       37.5       0.1000    
   1   384   1     0     1     1  37.6       37.6       0.1000    
   1   385   1     0     1     1  37.7       37.7       0.1000    
   1   386   1     0     1     1  37.8       37.8       0.1000    
   1   387   1     0     1     1  37.9       37.9       0.1000    
   1   388   1     0     1     1  38.0       38.0       0.1000    
   1   389   1     0     1     1  38.1       38.1       0.1000    
   1   390   1     0     1     1  38.2       38.2       0.1000    
   1   391   1     0     1     1  38.3       38.3       0.1000    
   1   392   1     0     1     1  38.4       38.4       0.1000    
   1   393   1     0     1     1  38.5       38.5       0.1000    
   1   394   1     0     1     1  38.6       38.6       0.1000    
   1   395   1     0     1     1  38.7       38.7       0.1000    
   1   396   1     0     1     1  38.8       38.8       0.1000    
   1   397   1     0     1     1  38.9       38.9       0.1000    
   1   398   1     0     1     1  39.0       39.0       0.1000    
   1   399   1     0     1     1  39.1       39.1       0.1000    
   1   400   1     0     1     1  39.2       39.2       0.1000    
   1   401   1     0     1     1  39.3       39.3       0.1000    
   1   402   1     0     1     1  39.4       39.4       0.1000    
   1   403   1     0     1     1  39.5       39.5       0.1000    
   1   404   1     0     1     1  39.6       39.6       0.1000    
   1   405   1     0     1     1  39.7       39.7       0.1000    
   1   406   1     0     1     1  39.8       39.8       0.1000    
   1   407   1     0     1     1  39.9       39.9       0.1000    
   1   408   1     0     1     1  40.0       40.0       0.1000    
   1   409   1     0     1     1  40.1       40.1       0.1000    
   1   410   1     0     1     1  40.2       40.2       0.1000    
   1   411   1     0     1     1  40.3       40.3       0.1000    
   1   412   1     0     1     1  40.4       40.4       0.1000    
   1   413   1     0     1     1  40.5       40.5       0.1000    
   1   414   1     0     1     1  40.6       40.6       0.1000    
   1   415   1     0     1     1  40.7       40.7       0.1000    
   1   416   1     0     1     1  40.8       40.8       0.1000    
   1   417   1     0     1     1  40.9       40.9       0.1000    
   1   418   1     0     1     1  41.0       41.0       0.1000    
   1   419   1     0     1     1  41.1       41.1       0.1000    
   1   420   1     0     1     1  41.2       41.2       0.1000    
   1   421   1     0     1     1  41.3       41.3       0.1000    
   1   422   1     0     1     1  41.4       41.4       0.1000    
   1   423   1     0     1     1  41.5       41.5       0.1000    
   1   424   1     0     1     1  41.6       41.6       0.1000    
   1   425   1     0     1     1  41.7       41.7       0.1000    
   1   426   1     0     1     1  41.8       41.8       0.1000    
   1   427   1     0     1     1  41.9       41.9       0.1000    
   1   428   1     0     1     1  42.0       42.0       0.1000    
   1   429   1     0     1     1  42.1       42.1       0.1000    
   1   430   1     0     1     1  42.2       42.2       0.1000    
   1   431   1     0     1     1  42.3       42.3       0.1000    
   1   432   1     0     1     1  42.4       42.4       0.1000    
   1   433   1     0     1     1  42.5       42.5       0.1000    
   1   434   1     0     1     1  42.6       42.6       0.1000    
   1   435   1     0     1     1  42.7       42.7       0.1000    
   1   436   1     0     1     1  42.8       42.8       0.1000    
   1   437   1     0     1     1  42.9       42.9       0.1000    
   1   438   1     0     1     1  43.0       43.0       0.1000    
   1   439   1     0     1     1  43.1       43.1       0.1000    
   1   440   1     0     1     1  43.2       43.2       0.1000    
   1   441   1     0     1     1  43.3       43.3       0.1000    
   1   442   1     0     1     1  43.4       43.4       0.1000    
   1   443   1     0     1     1  43.5       43.5       0.1000    
   1   444   1     0     1     1  43.6       43.6       0.1000    
   1   445   1     0     1     1  43.7       43.7       0.1000    
   1   446   1     0     1     1  43.8       43.8       0.1000    
   1   447   1     0     1     1  43.9       43.9       0.1000    
   1   448   1     0     1     1  44.0       44.0       0.1000    
   1   449   1     0     1     1  44.1       44.1       0.1000    
   1   450   1     0     1     1  44.2       44.2       0.1000    
   1   451   1     0     1     1  44.3       44.3       0.1000    
   1   452   1     0     1     1  44.4       44.4       0.1000    
   1   453   1     0     1     1  44.5       44.5       0.1000    
   1   454   1     0     1     1  44.6       44.6       0.1000    
   1   455   1     0     1     1  44.7       44.7       0.1000    
   1   456   1     0     1     1  44.8       44.8       0.1000    
   1   457   1     0     1     1  44.9       44.9       0.1000    
   1   458   1     0     1     1  45.0       45.0       0.1000    
   1   459   1     0     1     1  45.1       45.1       0.1000    
   1   460   1     0     1     1  45.2       45.2       0.1000    
   1   461   1     0     1     1  45.3       45.3       0.1000    
   1   462   1     0     1     1  45.4       45.4       0.1000    
   1   463   1     0     1     1  45.5       45.5       0.1000    
   1   464   1     0     1     1  45.6       45.6       0.1000    
   1   465   1     0     1     1  45.7       45.7       0.1000    
   1   466   1     0     1     1  45.8       45.8       0.1000    
   1   467   1     0     1     1  45.9       45.9       0.1000    
   1   468   1     0     1     1  46.0       46.0       0.1000    
   1   469   1     0     1     1  46.1       46.1       0.1000    
   1   470   1     0     1     1  46.2       46.2       0.1000    
   1   471   1     0     1     1  46.3       46.3       0.1000    
   1   472   1     0     1     1  46.4       46.4       0.1000    
   1   473   1     0     1     1  46.5       46.5       0.1000    
   1   474   1     0     1     1  46.6       46.6       0.1000    
   1   475   1     0     1     1  46.7       46.7       0.1000    
   1   476   1     0     1     1  46.8       46.8       0.1000    
   1   477   1     0     1     1  46.9       46.9       0.1000    
   1   478   1     0     1     1  47.0       47.0       0.1000    
   1   479   1     0     1     1  47.1       47.1       0.1000    
   1   480   1     0     1     1  47.2       47.2       0.1000    
   1   481   1     0     1     1  47.3       47.3       0.1000    
   1   482   1     0     1     1  47.4       47.4       0.1000    
   1   483   1     0     1     1  47.5       47.5       0.1000    
   1   484   1     0     1     1  47.6       47.6       0.1000    
   1   485   1     0     1     1  47.7       47.7       0.1000    
   1   486   1     0     1     1  47.8       47.8       0.1000    
   1   487   1     0     1     1  47.9       47.9       0.1000    
   1   488   1     0     1     1  48.0       48.0       0.1000    
   1   489   1     0     1     1  48.1       48.1       0.1000    
   1   490   1     0     1     1  48.2       48.2       0.1000    
   1   491   1     0     1     1  48.3       48.3       0.1000    
   1   492   1     0     1     1  48.4       48.4       0.1000    
   1   493   1     0     1     1  48.5       48.5       0.1000    
   1   494   1     0     1     1  48.6       48.6       0.1000    
   1   495   1     0     1     1  48.7       48.7       0.1000    
   1   496   1     0     1     1  48.8       48.8       0.1000    
   1   497   1     0     1     1  48.9       48.9       0.1000    
   1   498   1     0     1     1  49.0       49.0       0.1000    
   1   499   1     0     1     1  49.1       49.1       0.1000    
   1   500   1     0     1     1  49.2       49.2       0.1000    
   1   501   1     0     1     1  49.3       49.3       0.1000    
   1   502   1     0     1     1  49.4       49.4       0.1000    
   1   503   1     0     1     1  49.5       49.5       0.1000    
   1   504   1     0     1     1  49.6       49.6       0.1000    
   1   505   1     0     1     1  49.7       49.7       0.1000    
   1   506   1     0     1     1  49.8       49.8       0.1000    
   1   507   1     0     1     1  49.9       49.9       0.1000    
   1   508   1     0     1     1  50.0       50.0       0.1000    
   1   509   1     0     1     1  50.1       50.1       0.1000    
   1   510   1     0     1     1  50.2       50.2       0.1000    
   1   511   1     0     1     1  50.3       50.3       0.1000    
   1   512   1     0     1     1  50.4       50.4       0.1000    
   1   513   1     0     1     1  50.5       50.5       0.1000    
   1   514   1     0     1     1  50.6       50.6       0.1000    
   1   515   1     0     1     1  50.7       50.7       0.1000    
   1   516   1     0     1     1  50.8       50.8       0.1000    
   1   517   1     0     1     1  50.9       50.9       0.1000    
   1   518   1     0     1     1  51.0       51.0       0.1000    
   1   519   1     0     1     1  51.1       51.1       0.1000    
   1   520   1     0     1     1  51.2       51.2       0.1000    
   1   521   1     0     1     1  51.3       51.3       0.1000    
   1   522   1     0     1     1  51.4       51.4       0.1000    
   1   523   1     0     1     1  51.5       51.5       0.1000    
   1   524   1     0     1     1  51.6       51.6       0.1000    
   1   525   1     0     1     1  51.7       51.7       0.1000    
   1   526   1     0     1     1  51.8       51.8       0.1000    
   1   527   1     0     1     1  51.9       51.9       0.1000    
   1   528   1     0     1     1  52.0       52.0       0.1000    
   1   529   1     0     1     1  52.1       52.1       0.1000    
   1   530   1     0     1     1  52.2       52.2       0.1000    
   1   531   1     0     1     1  52.3       52.3       0.1000    
   1   532   1     0     1     1  52.4       52.4       0.1000    
   1   533   1     0     1     1  52.5       52.5       0.1000    
   1   534   1     0     1     1  52.6       52.6       0.1000    
   1   535   1     0     1     1  52.7       52.7       0.1000    
   1   536   1     0     1     1  52.8       52.8       0.1000    
   1   537   1     0     1     1  52.9       52.9       0.1000    
   1   538   1     0     1     1  53.0       53.0       0.1000    
   1   539   1     0     1     1  53.1       53.1       0.1000    
   1   540   1     0     1     1  53.2       53.2       0.1000    
   1   541   1     0     1     1  53.3       53.3       0.1000    
   1   542   1     0     1     1  53.4       53.4       0.1000    
   1   543   1     0     1     1  53.5       53.5       0.1000    
   1   544   1     0     1     1  53.6       53.6       0.1000    
   1   545   1     0     1     1  53.7       53.7       0.1000    
   1   546   1     0     1     1  53.8       53.8       0.1000    
   1   547   1     0     1     1  53.9       53.9       0.1000    
   1   548   1     0     1     1  54.0       54.0       0.1000    
   1   549   1     0     1     1  54.1       54.1       0.1000    
   1   550   1     0     1     1  54.2       54.2       0.1000    
   1   551   1     0     1     1  54.3       54.3       0.1000    
   1   552   1     0     1     1  54.4       54.4       0.1000    
   1   553   1     0     1     1  54.5       54.5       0.1000    
   1   554   1     0     1     1  54.6       54.6       0.1000    
   1   555   1     0     1     1  54.7       54.7       0.1000    
   1   556   1     0     1     1  54.8       54.8       0.1000    
   1   557   1     0     1     1  54.9       54.9       0.1000    
   1   558   1     0     1     1  55.0       55.0       0.1000    
   1   559   1     0     1     1  55.1       55.1       0.1000    
   1   560   1     0     1     1  55.2       55.2       0.1000    
   1   561   1     0     1     1  55.3       55.3       0.1000    
   1   562   1     0     1     1  55.4       55.4       0.1000    
   1   563   1     0     1     1  55.5       55.5       0.1000    
   1   564   1     0     1     1  55.6       55.6       0.1000    
   1   565   1     0     1     1  55.7       55.7       0.1000    
   1   566   1     0     1     1  55.8       55.8       0.1000    
   1   567   1     0     1     1  55.9       55.9       0.1000    
   1   568   1     0     1     1  56.0       56.0       0.1000    
   1   569   1     0     1     1  56.1       56.1       0.1000    
   1   570   1     0     1     1  56.2       56.2       0.1000    
   1   571   1     0     1     1  56.3       56.3       0.1000    
   1   572   1     0     1     1  56.4       56.4       0.1000    
   1   573   1     0     1     1  56.5       56.5       0.1000    
   1   574   1     0     1     1  56.6       56.6       0.1000    
   1   575   1     0     1     1  56.7       56.7       0.1000    
   1   576   1     0     1     1  56.8       56.8       0.1000    
   1   577   1     0     1     1  56.9       56.9       0.1000    
   1   578   1     0     1     1  57.0       57.0       0.1000    
   1   579   1     0     1     1  57.1       57.1       0.1000    
   1   580   1     0     1     1  57.2       57.2       0.1000    
   1   581   1     0     1     1  57.3       57.3       0.1000    
   1   582   1     0     1     1  57.4       57.4       0.1000    
   1   583   1     0     1     1  57.5       57.5       0.1000    
   1   584   1     0     1     1  57.6       57.6       0.1000    
   1   585   1     0     1     1  57.7       57.7       0.1000    
   1   586   1     0     1     1  57.8       57.8       0.1000    
   1   587   1     0     1     1  57.9       57.9       0.1000    
   1   588   1     0     1     1  58.0       58.0       0.1000    
   1   589   1     0     1     1  58.1       58.1       0.1000    
   1   590   1     0     1     1  58.2       58.2       0.1000    
   1   591   1     0     1     1  58.3       58.3       0.1000    
   1   592   1     0     1     1  58.4       58.4       0.1000    
   1   593   1     0     1     1  58.5       58.5       0.1000    
   1   594   1     0     1     1  58.6       58.6       0.1000    
   1   595   1     0     1     1  58.7       58.7       0.1000    
   1   596   1     0     1     1  58.8       58.8       0.1000    
   1   597   1     0     1     1  58.9       58.9       0.1000    
   1   598   1     0     1     1  59.0       59.0       0.1000    
   1   599   1     0     1     1  59.1       59.1       0.1000    
   1   600   1     0     1     1  59.2       59.2       0.1000    
   1   601   1     0     1     1  59.3       59.3       0.1000    
   1   602   1     0     1     1  59.4       59.4       0.1000    
   1   603   1     0     1     1  59.5       59.5       0.1000    
   1   604   1     0     1     1  59.6       59.6       0.1000    
   1   605   1     0     1     1  59.7       59.7       0.1000    
   1   606   1     0     1     1  59.8       59.8       0.1000    
   1   607   1     0     1     1  59.9       59.9       0.1000    
   1   608   1     0     1     1  60.0       60.0       0.1000    
   1   609   1     0     1     1  60.1       60.1       0.1000    
   1   610   1     0     1     1  60.2       60.2       0.1000    
   1   611   1     0     1     1  60.3       60.3       0.1000    
   1   612   1     0     1     1  60.4       60.4       0.1000    
   1   613   1     0     1     1  60.5       60.5       0.1000    
   1   614   1     0     1     1  60.6       60.6       0.1000    
   1   615   1     0     1     1  60.7       60.7       0.1000    
   1   616   1     0     1     1  60.8       60.8       0.1000    
   1   617   1     0     1     1  60.9       60.9       0.1000    
   1   618   1     0     1     1  61.0       61.0       0.1000    
   1   619   1     0     1     1  61.1       61.1       0.1000    
   1   620   1     0     1     1  61.2       61.2       0.1000    
   1   621   1     0     1     1  61.3       61.3       0.1000    
   1   622   1     0     1     1  61.4       61.4       0.1000    
   1   623   1     0     1     1  61.5       61.5       0.1000    
   1   624   1     0     1     1  61.6       61.6       0.1000    
   1   625   1     0     1     1  61.7       61.7       0.1000    
   1   626   1     0     1     1  61.8       61.8       0.1000    
   1   627   1     0     1     1  61.9       61.9       0.1000    
   1   628   1     0     1     1  62.0       62.0       0.1000    
   1   629   1     0     1     1  62.1       62.1       0.1000    
   1   630   1     0     1     1  62.2       62.2       0.1000    
   1   631   1     0     1     1  62.3       62.3       0.1000    
   1   632   1     0     1     1  62.4       62.4       0.1000    
   1   633   1     0     1     1  62.5       62.5       0.1000    
   1   634   1     0     1     1  62.6       62.6       0.1000    
   1   635   1     0     1     1  62.7       62.7       0.1000    
   1   636   1     0     1     1  62.8       62.8       0.1000    
   1   637   1     0     1     1  62.9       62.9       0.1000    
   1   638   1     0     1     1  63.0       63.0       0.1000    
   1   639   1     0     1     1  63.1       63.1       0.1000    
   1   640   1     0     1     1  63.2       63.2       0.1000    
   1   641   1     0     1     1  63.3       63.3       0.1000    
   1   642   1     0     1     1  63.4       63.4       0.1000    
   1   643   1     0     1     1  63.5       63.5       0.1000    
   1   644   1     0     1     1  63.6       63.6       0.1000    
   1   645   1     0     1     1  63.7       63.7       0.1000    
   1   646   1     0     1     1  63.8       63.8       0.1000    
   1   647   1     0     1     1  63.9       63.9       0.1000    
   1   648   1     0     1     1  64.0       64.0       0.1000    
   1   649   1     0     1     1  64.1       64.1       0.1000    
   1   650   1     0     1     1  64.2       64.2       0.1000    
   1   651   1     0     1     1  64.3       64.3       0.1000    
   1   652   1     0     1     1  64.4       64.4       0.1000    
   1   653   1     0     1     1  64.5       64.5       0.1000    
   1   654   1     0     1     1  64.6       64.6       0.1000    
   1   655   1     0     1     1  64.7       64.7       0.1000    
   1   656   1     0     1     1  64.8       64.8       0.1000    
   1   657   1     0     1     1  64.9       64.9       0.1000    
   1   658   1     0     1     1  65.0       65.0       0.1000    
   1   659   1     0     1     1  65.1       65.1       0.1000    
   1   660   1     0     1     1  65.2       65.2       0.1000    
   1   661   1     0     1     1  65.3       65.3       0.1000    
   1   662   1     0     1     1  65.4       65.4       0.1000    
   1   663   1     0     1     1  65.5       65.5       0.1000    
   1   664   1     0     1     1  65.6       65.6       0.1000    
   1   665   1     0     1     1  65.7       65.7       0.1000    
   1   666   1     0     1     1  65.8       65.8       0.1000    
   1   667   1     0     1     1  65.9       65.9       0.1000    
   1   668   1     0     1     1  66.0       66.0       0.1000    
   1   669   1     0     1     1  66.1       66.1       0.1000    
   1   670   1     0     1     1  66.2       66.2       0.1000    
   1   671   1     0     1     1  66.3       66.3       0.1000    
   1   672   1     0     1     1  66.4       66.4       0.1000    
   1   673   1     0     1     1  66.5       66.5       0.1000    
   1   674   1     0     1     1  66.6       66.6       0.1000    
   1   675   1     0     1     1  66.7       66.7       0.1000    
   1   676   1     0     1     1  66.8       66.8       0.1000    
   1   677   1     0     1     1  66.9       66.9       0.1000    
   1   678   1     0     1     1  67.0       67.0       0.1000    
   1   679   1     0     1     1  67.1       67.1       0.1000    
   1   680   1     0     1     1  67.2       67.2       0.1000    
   1   681   1     0     1     1  67.3       67.3       0.1000    
   1   682   1     0     1     1  67.4       67.4       0.1000    
   1   683   1     0     1     1  67.5       67.5       0.1000    
   1   684   1     0     1     1  67.6       67.6       0.1000    
   1   685   1     0     1     1  67.7       67.7       0.1000    
   1   686   1     0     1     1  67.8       67.8       0.1000    
   1   687   1     0     1     1  67.9       67.9       0.1000    
   1   688   1     0     1     1  68.0       68.0       0.1000    
   1   689   1     0     1     1  68.1       68.1       0.1000    
   1   690   1     0     1     1  68.2       68.2       0.1000    
   1   691   1     0     1     1  68.3       68.3       0.1000    
   1   692   1     0     1     1  68.4       68.4       0.1000    
   1   693   1     0     1     1  68.5       68.5       0.1000    
   1   694   1     0     1     1  68.6       68.6       0.1000    
   1   695   1     0     1     1  68.7       68.7       0.1000    
   1   696   1     0     1     1  68.8       68.8       0.1000    
   1   697   1     0     1     1  68.9       68.9       0.1000    
   1   698   1     0     1     1  69.0       69.0       0.1000    
   1   699   1     0     1     1  69.1       69.1       0.1000    
   1   700   1     0     1     1  69.2       69.2       0.1000    
   1   701   1     0     1     1  69.3       69.3       0.1000    
   1   702   1     0     1     1  69.4       69.4       0.1000    
   1   703   1     0     1     1  69.5       69.5       0.1000    
   1   704   1     0     1     1  69.6       69.6       0.1000    
   1   705   1     0     1     1  69.7       69.7       0.1000    
   1   706   1     0     1     1  69.8       69.8       0.1000    
   1   707   1     0     1     1  69.9       69.9       0.1000    
   1   708   1     0     1     1  70.0       70.0       0.1000    
   1   709   1     0     1     1  70.1       70.1       0.1000    
   1   710   1     0     1     1  70.2       70.2       0.1000    
   1   711   1     0     1     1  70.3       70.3       0.1000    
   1   712   1     0     1     1  70.4       70.4       0.1000    
   1   713   1     0     1     1  70.5       70.5       0.1000    
   1   714   1     0     1     1  70.6       70.6       0.1000    
   1   715   1     0     1     1  70.7       70.7       0.1000    
   1   716   1     0     1     1  70.8       70.8       0.1000    
   1   717   1     0     1     1  70.9       70.9       0.1000    
   1   718   1     0     1     1  71.0       71.0       0.1000    
   1   719   1     0     1     1  71.1       71.1       0.1000    
   1   720   1     0     1     1  71.2       71.2       0.1000    
   1   721   1     0     1     1  71.3       71.3       0.1000    
   1   722   1     0     1     1  71.4       71.4       0.1000    
   1   723   1     0     1     1  71.5       71.5       0.1000    
   1   724   1     0     1     1  71.6       71.6       0.1000    
   1   725   1     0     1     1  71.7       71.7       0.1000    
   1   726   1     0     1     1  71.8       71.8       0.1000    
   1   727   1     0     1     1  71.9       71.9       0.1000    
   1   728   1     0     1     1  72.0       72.0       0.1000    
   1   729   1     0     1     1  72.1       72.1       0.1000    
   1   730   1     0     1     1  72.2       72.2       0.1000    
   1   731   1     0     1     1  72.3       72.3       0.1000    
   1   732   1     0     1     1  72.4       72.4       0.1000    
   1   733   1     0     1     1  72.5       72.5       0.1000    
   1   734   1     0     1     1  72.6       72.6       0.1000    
   1   735   1     0     1     1  72.7       72.7       0.1000    
   1   736   1     0     1     1  72.8       72.8       0.1000    
   1   737   1     0     1     1  72.9       72.9       0.1000    
   1   738   1     0     1     1  73.0       73.0       0.1000    
   1   739   1     0     1     1  73.1       73.1       0.1000    
   1   740   1     0     1     1  73.2       73.2       0.1000    
   1   741   1     0     1     1  73.3       73.3       0.1000    
   1   742   1     0     1     1  73.4       73.4       0.1000    
   1   743   1     0     1     1  73.5       73.5       0.1000    
   1   744   1     0     1     1  73.6       73.6       0.1000    
   1   745   1     0     1     1  73.7       73.7       0.1000    
   1   746   1     0     1     1  73.8       73.8       0.1000    
   1   747   1     0     1     1  73.9       73.9       0.1000    
   1   748   1     0     1     1  74.0       74.0       0.1000    
   1   749   1     0     1     1  74.1       74.1       0.1000    
   1   750   1     0     1     1  74.2       74.2       0.1000    
   1   751   1     0     1     1  74.3       74.3       0.1000    
   1   752   1     0     1     1  74.4       74.4       0.1000    
   1   753   1     0     1     1  74.5       74.5       0.1000    
   1   754   1     0     1     1  74.6       74.6       0.1000    
   1   755   1     0     1     1  74.7       74.7       0.1000    
   1   756   1     0     1     1  74.8       74.8       0.1000    
   1   757   1     0     1     1  74.9       74.9       0.1000    
   1   758   1     0     1     1  75.0       75.0       0.1000    
   1   759   1     0     1     1  75.1       75.1       0.1000    
   1   760   1     0     1     1  75.2       75.2       0.1000    
   1   761   1     0     1     1  75.3       75.3       0.1000    
   1   762   1     0     1     1  75.4       75.4       0.1000    
   1   763   1     0     1     1  75.5       75.5       0.1000    
   1   764   1     0     1     1  75.6       75.6       0.1000    
   1   765   1     0     1     1  75.7       75.7       0.1000    
   1   766   1     0     1     1  75.8       75.8       0.1000    
   1   767   1     0     1     1  75.9       75.9       0.1000    
   1   768   1     0     1     1  76.0       76.0       0.1000    
   1   769   1     0     1     1  76.1       76.1       0.1000    
   1   770   1     0     1     1  76.2       76.2       0.1000    
   1   771   1     0     1     1  76.3       76.3       0.1000    
   1   772   1     0     1     1  76.4       76.4       0.1000    
   1   773   1     0     1     1  76.5       76.5       0.1000    
   1   774   1     0     1     1  76.6       76.6       0.1000    
   1   775   1     0     1     1  76.7       76.7       0.1000    
   1   776   1     0     1     1  76.8       76.8       0.1000    
   1   777   1     0     1     1  76.9       76.9       0.1000    
   1   778   1     0     1     1  77.0       77.0       0.1000    
   1   779   1     0     1     1  77.1       77.1       0.1000    
   1   780   1     0     1     1  77.2       77.2       0.1000    
   1   781   1     0     1     1  77.3       77.3       0.1000    
   1   782   1     0     1     1  77.4       77.4       0.1000    
   1   783   1     0     1     1  77.5       77.5       0.1000    
   1   784   1     0     1     1  77.6       77.6       0.1000    
   1   785   1     0     1     1  77.7       77.7       0.1000    
   1   786   1     0     1     1  77.8       77.8       0.1000    
   1   787   1     0     1     1  77.9       77.9       0.1000    
   1   788   1     0     1     1  78.0       78.0       0.1000    
   1   789   1     0     1     1  78.1       78.1       0.1000    
   1   790   1     0     1     1  78.2       78.2       0.1000    
   1   791   1     0     1     1  78.3       78.3       0.1000    
   1   792   1     0     1     1  78.4       78.4       0.1000    
   1   793   1     0     1     1  78.5       78.5       0.1000    
   1   794   1     0     1     1  78.6       78.6       0.1000    
   1   795   1     0     1     1  78.7       78.7       0.1000    
   1   796   1     0     1     1  78.8       78.8       0.1000    
   1   797   1     0     1     1  78.9       78.9       0.1000    
   1   798   1     0     1     1  79.0       79.0       0.1000    
   1   799   1     0     1     1  79.1       79.1       0.1000    
   1   800   1     0     1     1  79.2       79.2       0.1000    
   1   801   1     0     1     1  79.3       79.3       0.1000    
   1   802   1     0     1     1  79.4       79.4       0.1000    
   1   803   1     0     1     1  79.5       79.5       0.1000    
   1   804   1     0     1     1  79.6       79.6       0.1000    
   1   805   1     0     1     1  79.7       79.7       0.1000    
   1   806   1     0     1     1  79.8       79.8       0.1000    
   1   807   1     0     1     1  79.9       79.9       0.1000    
   1   808   1     0     1     1  80.0       80.0       0.1000    
   1   809   1     0     1     1  80.1       80.1       0.1000    
   1   810   1     0     1     1  80.2       80.2       0.1000    
   1   811   1     0     1     1  80.3       80.3       0.1000    
   1   812   1     0     1     1  80.4       80.4       0.1000    
   1   813   1     0     1     1  80.5       80.5       0.1000    
   1   814   1     0     1     1  80.6       80.6       0.1000    
   1   815   1     0     1     1  80.7       80.7       0.1000    
   1   816   1     0     1     1  80.8       80.8       0.1000    
   1   817   1     0     1     1  80.9       80.9       0.1000    
   1   818   1     0     1     1  81.0       81.0       0.1000    
   1   819   1     0     1     1  81.1       81.1       0.1000    
   1   820   1     0     1     1  81.2       81.2       0.1000    
   1   821   1     0     1     1  81.3       81.3       0.1000    
   1   822   1     0     1     1  81.4       81.4       0.1000    
   1   823   1     0     1     1  81.5       81.5       0.1000    
   1   824   1     0     1     1  81.6       81.6       0.1000    
   1   825   1     0     1     1  81.7       81.7       0.1000    
   1   826   1     0     1     1  81.8       81.8       0.1000    
   1   827   1     0     1     1  81.9       81.9       0.1000    
   1   828   1     0     1     1  82.0       82.0       0.1000    
   1   829   1     0     1     1  82.1       82.1       0.1000    
   1   830   1     0     1     1  82.2       82.2       0.1000    
   1   831   1     0     1     1  82.3       82.3       0.1000    
   1   832   1     0     1     1  82.4       82.4       0.1000    
   1   833   1     0     1     1  82.5       82.5       0.1000    
   1   834   1     0     1     1  82.6       82.6       0.1000    
   1   835   1     0     1     1  82.7       82.7       0.1000    
   1   836   1     0     1     1  82.8       82.8       0.1000    
   1   837   1     0     1     1  82.9       82.9       0.1000    
   1   838   1     0     1     1  83.0       83.0       0.1000    
   1   839   1     0     1     1  83.1       83.1       0.1000    
   1   840   1     0     1     1  83.2       83.2       0.1000    
   1   841   1     0     1     1  83.3       83.3       0.1000    
   1   842   1     0     1     1  83.4       83.4       0.1000    
   1   843   1     0     1     1  83.5       83.5       0.1000    
   1   844   1     0     1     1  83.6       83.6       0.1000    
   1   845   1     0     1     1  83.7       83.7       0.1000    
   1   846   1     0     1     1  83.8       83.8       0.1000    
   1   847   1     0     1     1  83.9       83.9       0.1000    
   1   848   1     0     1     1  84.0       84.0       0.1000    
   1   849   1     0     1     1  84.1       84.1       0.1000    
   1   850   1     0     1     1  84.2       84.2       0.1000    
   1   851   1     0     1     1  84.3       84.3       0.1000    
   1   852   1     0     1     1  84.4       84.4       0.1000    
   1   853   1     0     1     1  84.5       84.5       0.1000    
   1   854   1     0     1     1  84.6       84.6       0.1000    
   1   855   1     0     1     1  84.7       84.7       0.1000    
   1   856   1     0     1     1  84.8       84.8       0.1000    
   1   857   1     0     1     1  84.9       84.9       0.1000    
   1   858   1     0     1     1  85.0       85.0       0.1000    
   1   859   1     0     1     1  85.1       85.1       0.1000    
   1   860   1     0     1     1  85.2       85.2       0.1000    
   1   861   1     0     1     1  85.3       85.3       0.1000    
   1   862   1     0     1     1  85.4       85.4       0.1000    
   1   863   1     0     1     1  85.5       85.5       0.1000    
   1   864   1     0     1     1  85.6       85.6       0.1000    
   1   865   1     0     1     1  85.7       85.7       0.1000    
   1   866   1     0     1     1  85.8       85.8       0.1000    
   1   867   1     0     1     1  85.9       85.9       0.1000    
   1   868   1     0     1     1  86.0       86.0       0.1000    
   1   869   1     0     1     1  86.1       86.1       0.1000    
   1   870   1     0     1     1  86.2       86.2       0.1000    
   1   871   1     0     1     1  86.3       86.3       0.1000    
   1   872   1     0     1     1  86.4       86.4       0.1000    
   1   873   1     0     1     1  86.5       86.5       0.1000    
   1   874   1     0     1     1  86.6       86.6       0.1000    
   1   875   1     0     1     1  86.7       86.7       0.1000    
   1   876   1     0     1     1  86.8       86.8       0.1000    
   1   877   1     0     1     1  86.9       86.9       0.1000    
   1   878   1     0     1     1  87.0       87.0       0.1000    
   1   879   1     0     1     1  87.1       87.1       0.1000    
   1   880   1     0     1     1  87.2       87.2       0.1000    
   1   881   1     0     1     1  87.3       87.3       0.1000    
   1   882   1     0     1     1  87.4       87.4       0.1000    
   1   883   1     0     1     1  87.5       87.5       0.1000    
   1   884   1     0     1     1  87.6       87.6       0.1000    
   1   885   1     0     1     1  87.7       87.7       0.1000    
   1   886   1     0     1     1  87.8       87.8       0.1000    
   1   887   1     0     1     1  87.9       87.9       0.1000    
   1   888   1     0     1     1  88.0       88.0       0.1000    
   1   889   1     0     1     1  88.1       88.1       0.1000    
   1   890   1     0     1     1  88.2       88.2       0.1000    
   1   891   1     0     1     1  88.3       88.3       0.1000    
   1   892   1     0     1     1  88.4       88.4       0.1000    
   1   893   1     0     1     1  88.5       88.5       0.1000    
   1   894   1     0     1     1  88.6       88.6       0.1000    
   1   895   1     0     1     1  88.7       88.7       0.1000    
   1   896   1     0     1     1  88.8       88.8       0.1000    
   1   897   1     0     1     1  88.9       88.9       0.1000    
   1   898   1     0     1     1  89.0       89.0       0.1000    
   1   899   1     0     1     1  89.1       89.1       0.1000    
   1   900   1     0     1     1  89.2       89.2       0.1000    
   1   901   1     0     1     1  89.3       89.3       0.1000    
   1   902   1     0     1     1  89.4       89.4       0.1000    
   1   903   1     0     1     1  89.5       89.5       0.1000    
   1   904   1     0     1     1  89.6       89.6       0.1000    
   1   905   1     0     1     1  89.7       89.7       0.1000    
   1   906   1     0     1     1  89.8       89.8       0.1000    
   1   907   1     0     1     1  89.9       89.9       0.1000    
   1   908   1     0     1     1  90.0       90.0       0.1000    
   1   909   1     0     1     1  90.1       90.1       0.1000    
   1   910   1     0     1     1  90.2       90.2       0.1000    
   1   911   1     0     1     1  90.3       90.3       0.1000    
   1   912   1     0     1     1  90.4       90.4       0.1000    
   1   913   1     0     1     1  90.5       90.5       0.1000    
   1   914   1     0     1     1  90.6       90.6       0.1000    
   1   915   1     0     1     1  90.7       90.7       0.1000    
   1   916   1     0     1     1  90.8       90.8       0.1000    
   1   917   1     0     1     1  90.9       90.9       0.1000    
   1   918   1     0     1     1  91.0       91.0       0.1000    
   1   919   1     0     1     1  91.1       91.1       0.1000    
   1   920   1     0     1     1  91.2       91.2       0.1000    
   1   921   1     0     1     1  91.3       91.3       0.1000    
   1   922   1     0     1     1  91.4       91.4       0.1000    
   1   923   1     0     1     1  91.5       91.5       0.1000    
   1   924   1     0     1     1  91.6       91.6       0.1000    
   1   925   1     0     1     1  91.7       91.7       0.1000    
   1   926   1     0     1     1  91.8       91.8       0.1000    
   1   927   1     0     1     1  91.9       91.9       0.1000    
   1   928   1     0     1     1  92.0       92.0       0.1000    
   1   929   1     0     1     1  92.1       92.1       0.1000    
   1   930   1     0     1     1  92.2       92.2       0.1000    
   1   931   1     0     1     1  92.3       92.3       0.1000    
   1   932   1     0     1     1  92.4       92.4       0.1000    
   1   933   1     0     1     1  92.5       92.5       0.1000    
   1   934   1     0     1     1  92.6       92.6       0.1000    
   1   935   1     0     1     1  92.7       92.7       0.1000    
   1   936   1     0     1     1  92.8       92.8       0.1000    
   1   937   1     0     1     1  92.9       92.9       0.1000    
   1   938   1     0     1     1  93.0       93.0       0.1000    
   1   939   1     0     1     1  93.1       93.1       0.1000    
   1   940   1     0     1     1  93.2       93.2       0.1000    
   1   941   1     0     1     1  93.3       93.3       0.1000    
   1   942   1     0     1     1  93.4       93.4       0.1000    
   1   943   1     0     1     1  93.5       93.5       0.1000    
   1   944   1     0     1     1  93.6       93.6       0.1000    
   1   945   1     0     1     1  93.7       93.7       0.1000    
   1   946   1     0     1     1  93.8       93.8       0.1000    
   1   947   1     0     1     1  93.9       93.9       0.1000    
   1   948   1     0     1     1  94.0       94.0       0.1000    
   1   949   1     0     1     1  94.1       94.1       0.1000    
   1   950   1     0     1     1  94.2       94.2       0.1000    
   1   951   1     0     1     1  94.3       94.3       0.1000    
   1   952   1     0     1     1  94.4       94.4       0.1000    
   1   953   1     0     1     1  94.5       94.5       0.1000    
   1   954   1     0     1     1  94.6       94.6       0.1000    
   1   955   1     0     1     1  94.7       94.7       0.1000    
   1   956   1     0     1     1  94.8       94.8       0.1000    
   1   957   1     0     1     1  94.9       94.9       0.1000    
   1   958   1     0     1     1  95.0       95.0       0.1000    
   1   959   1     0     1     1  95.1       95.1       0.1000    
   1   960   1     0     1     1  95.2       95.2       0.1000    
   1   961   1     0     1     1  95.3       95.3       0.1000    
   1   962   1     0     1     1  95.4       95.4       0.1000    
   1   963   1     0     1     1  95.5       95.5       0.1000    
   1   964   1     0     1     1  95.6       95.6       0.1000    
   1   965   1     0     1     1  95.7       95.7       0.1000    
   1   966   1     0     1     1  95.8       95.8       0.1000    
   1   967   1     0     1     1  95.9       95.9       0.1000    
   1   968   1     0     1     1  96.0       96.0       0.1000    
   1   969   1     0     1     1  96.1       96.1       0.1000    
   1   970   1     0     1     1  96.2       96.2       0.1000    
   1   971   1     0     1     1  96.3       96.3       0.1000    
   1   972   1     0     1     1  96.4       96.4       0.1000    
   1   973   1     0     1     1  96.5       96.5       0.1000    
   1   974   1     0     1     1  96.6       96.6       0.1000    
   1   975   1     0     1     1  96.7       96.7       0.1000    
   1   976   1     0     1     1  96.8       96.8       0.1000    
   1   977   1     0     1     1  96.9       96.9       0.1000    
   1   978   1     0     1     1  97.0       97.0       0.1000    
   1   979   1     0     1     1  97.1       97.1       0.1000    
   1   980   1     0     1     1  97.2       97.2       0.1000    
   1   981   1     0     1     1  97.3       97.3       0.1000    
   1   982   1     0     1     1  97.4       97.4       0.1000    
   1   983   1     0     1     1  97.5       97.5       0.1000    
   1   984   1     0     1     1  97.6       97.6       0.1000    
   1   985   1     0     1     1  97.7       97.7       0.1000    
   1   986   1     0     1     1  97.8       97.8       0.1000    
   1   987   1     0     1     1  97.9       97.9       0.1000    
   1   988   1     0     1     1  98.0       98.0       0.1000    
   1   989   1     0     1     1  98.1       98.1       0.1000    
   1   990   1     0     1     1  98.2       98.2       0.1000    
   1   991   1     0     1     1  98.3       98.3       0.1000    
   1   992   1     0     1     1  98.4       98.4       0.1000    
   1   993   1     0     1     1  98.5       98.5       0.1000    
   1   994   1     0     1     1  98.6       98.6       0.1000    
   1   995   1     0     1     1  98.7       98.7       0.1000    
   1   996   1     0     1     1  98.8       98.8       0.1000    
   1   997   1     0     1     1  98.9       98.9       0.1000    
   1   998   1     0     1     1  99.0       99.0       0.1000    
   1   999   1     0     1     1  99.1       99.1       0.1000    
   1  1000   1     0     1     1  99.2       99.2       0.1000    
   1  1001   1     0     1     1  99.3       99.3       0.1000    
   1  1002   1     0     1     1  99.4       99.4       0.1000    
   1  1003   1     0     1     1  99.5       99.5       0.1000    
   1  1004   1     0     1     1  99.6       99.6       0.1000    
   1  1005   1     0     1     1  99.7       99.7       0.1000    
   1  1006   1     0     1     1  99.8       99.8       0.1000    
   1  1007   1     0     1     1  99.9       99.9       0.1000    
   1  1008   1     0     1     1  100.       100.       0.1000    
   1  1009   1     0     1     1  100.       100.       0.1000    
   1  1010   1     0     1     1  100.       100.       0.1000    
   1  1011   1     0     1     1  100.       100.       0.1000    
   1  1012   1     0     1     1  100.       100.       0.1000    
   1  1013   1     0     1     1  101.       101.       0.1000    
   1  1014   1     0     1     1  101.       101.       0.1000    
   1  1015   1     0     1     1  101.       101.       0.1000    
   1  1016   1     0     1     1  101.       101.       0.1000    
   1  1017   1     0     1     1  101.       101.       0.1000    
   1  1018   1     0     1     1  101.       101.       0.1000    
   1  1019   1     0     1     1  101.       101.       0.1000    
   1  1020   1     0     1     1  101.       101.       0.1000    
   1  1021   1     0     1     1  101.       101.       0.1000    
   1  1022   1     0     1     1  101.       101.       0.1000    
   1  1023   1     0     1     1  102.       102.       0.1000    
   1  1024   1     0     1     1  102.       102.       0.1000    
   1  1025   1     0     1     1  102.       102.       0.1000    
   1  1026   1     0     1     1  102.       102.       0.1000    
   1  1027   1     0     1     1  102.       102.       0.1000    
   1  1028   1     0     1     1  102.       102.       0.1000    
   1  1029   1     0     1     1  102.       102.       0.1000    
   1  1030   1     0     1     1  102.       102.       0.1000    
   1  1031   1     0     1     1  102.       102.       0.1000    
   1  1032   1     0     1     1  102.       102.       0.1000    
   1  1033   1     0     1     1  103.       103.       0.1000    
   1  1034   1     0     1     1  103.       103.       0.1000    
   1  1035   1     0     1     1  103.       103.       0.1000    
   1  1036   1     0     1     1  103.       103.       0.1000    
   1  1037   1     0     1     1  103.       103.       0.1000    
   1  1038   1     0     1     1  103.       103.       0.1000    
   1  1039   1     0     1     1  103.       103.       0.1000    
   1  1040   1     0     1     1  103.       103.       0.1000    
   1  1041   1     0     1     1  103.       103.       0.1000    
   1  1042   1     0     1     1  103.       103.       0.1000    
   1  1043   1     0     1     1  104.       104.       0.1000    
   1  1044   1     0     1     1  104.       104.       0.1000    
   1  1045   1     0     1     1  104.       104.       0.1000    
   1  1046   1     0     1     1  104.       104.       0.1000    
   1  1047   1     0     1     1  104.       104.       0.1000    
   1  1048   1     0     1     1  104.       104.       0.1000    
   1  1049   1     0     1     1  104.       104.       0.1000    
   1  1050   1     0     1     1  104.       104.       0.1000    
   1  1051   1     0     1     1  104.       104.       0.1000    
   1  1052   1     0     1     1  104.       104.       0.1000    
   1  1053   1     0     1     1  105.       105.       0.1000    
   1  1054   1     0     1     1  105.       105.       0.1000    
   1  1055   1     0     1     1  105.       105.       0.1000    
   1  1056   1     0     1     1  105.       105.       0.1000    
   1  1057   1     0     1     1  105.       105.       0.1000    
   1  1058   1     0     1     1  105.       105.       0.1000    
   1  1059   1     0     1     1  105.       105.       0.1000    
   1  1060   1     0     1     1  105.       105.       0.1000    
   1  1061   1     0     1     1  105.       105.       0.1000    
   1  1062   1     0     1     1  105.       105.       0.1000    
   1  1063   1     0     1     1  106.       106.       0.1000    
   1  1064   1     0     1     1  106.       106.       0.1000    
   1  1065   1     0     1     1  106.       106.       0.1000    
   1  1066   1     0     1     1  106.       106.       0.1000    
   1  1067   1     0     1     1  106.       106.       0.1000    
   1  1068   1     0     1     1  106.       106.       0.1000    
   1  1069   1     0     1     1  106.       106.       0.1000    
   1  1070   1     0     1     1  106.       106.       0.1000    
   1  1071   1     0     1     1  106.       106.       0.1000    
   1  1072   1     0     1     1  106.       106.       0.1000    
   1  1073   1     0     1     1  107.       107.       0.1000    
   1  1074   1     0     1     1  107.       107.       0.1000    
   1  1075   1     0     1     1  107.       107.       0.1000    
   1  1076   1     0     1     1  107.       107.       0.1000    
   1  1077   1     0     1     1  107.       107.       0.1000    
   1  1078   1     0     1     1  107.       107.       0.1000    
   1  1079   1     0     1     1  107.       107.       0.1000    
   1  1080   1     0     1     1  107.       107.       0.1000    
   1  1081   1     0     1     1  107.       107.       0.1000    
   1  1082   1     0     1     1  107.       107.       0.1000    
   1  1083   1     0     1     1  108.       108.       0.1000    
   1  1084   1     0     1     1  108.       108.       0.1000    
   1  1085   1     0     1     1  108.       108.       0.1000    
   1  1086   1     0     1     1  108.       108.       0.1000    
   1  1087   1     0     1     1  108.       108.       0.1000    
   1  1088   1     0     1     1  108.       108.       0.1000    
   1  1089   1     0     1     1  108.       108.       0.1000    
   1  1090   1     0     1     1  108.       108.       0.1000    
   1  1091   1     0     1     1  108.       108.       0.1000    
   1  1092   1     0     1     1  108.       108.       0.1000    
   1  1093   1     0     1     1  109.       109.       0.1000    
   1  1094   1     0     1     1  109.       109.       0.1000    
   1  1095   1     0     1     1  109.       109.       0.1000    
   1  1096   1     0     1     1  109.       109.       0.1000    
   1  1097   1     0     1     1  109.       109.       0.1000    
   1  1098   1     0     1     1  109.       109.       0.1000    
   1  1099   1     0     1     1  109.       109.       0.1000    
   1  1100   1     0     1     1  109.       109.       0.1000    
   1  1101   1     0     1     1  109.       109.       0.1000    
   1  1102   1     0     1     1  109.       109.       0.1000    
   1  1103   1     0     1     1  110.       110.       0.1000    
   1  1104   1     0     1     1  110.       110.       0.1000    
   1  1105   1     0     1     1  110.       110.       0.1000    
   1  1106   1     0     1     1  110.       110.       0.1000    
   1  1107   1     0     1     1  110.       110.       0.1000    
   1  1108   1     0     1     1  110.       110.       0.1000    
   1  1109   1     0     1     1  110.       110.       0.1000    
   1  1110   1     0     1     1  110.       110.       0.1000    
   1  1111   1     0     1     1  110.       110.       0.1000    
   1  1112   1     0     1     1  110.       110.       0.1000    
   1  1113   1     0     1     1  111.       111.       0.1000    
   1  1114   1     0     1     1  111.       111.       0.1000    
   1  1115   1     0     1     1  111.       111.       0.1000    
   1  1116   1     0     1     1  111.       111.       0.1000    
   1  1117   1     0     1     1  111.       111.       0.1000    
   1  1118   1     0     1     1  111.       111.       0.1000    
   1  1119   1     0     1     1  111.       111.       0.1000    
   1  1120   1     0     1     1  111.       111.       0.1000    
   1  1121   1     0     1     1  111.       111.       0.1000    
   1  1122   1     0     1     1  111.       111.       0.1000    
   1  1123   1     0     1     1  112.       112.       0.1000    
   1  1124   1     0     1     1  112.       112.       0.1000    
   1  1125   1     0     1     1  112.       112.       0.1000    
   1  1126   1     0     1     1  112.       112.       0.1000    
   1  1127   1     0     1     1  112.       112.       0.1000    
   1  1128   1     0     1     1  112.       112.       0.1000    
   1  1129   1     0     1     1  112.       112.       0.1000    
   1  1130   1     0     1     1  112.       112.       0.1000    
   1  1131   1     0     1     1  112.       112.       0.1000    
   1  1132   1     0     1     1  112.       112.       0.1000    
   1  1133   1     0     1     1  113.       113.       0.1000    
   1  1134   1     0     1     1  113.       113.       0.1000    
   1  1135   1     0     1     1  113.       113.       0.1000    
   1  1136   1     0     1     1  113.       113.       0.1000    
   1  1137   1     0     1     1  113.       113.       0.1000    
   1  1138   1     0     1     1  113.       113.       0.1000    
   1  1139   1     0     1     1  113.       113.       0.1000    
   1  1140   1     0     1     1  113.       113.       0.1000    
   1  1141   1     0     1     1  113.       113.       0.1000    
   1  1142   1     0     1     1  113.       113.       0.1000    
   1  1143   1     0     1     1  114.       114.       0.1000    
   1  1144   1     0     1     1  114.       114.       0.1000    
   1  1145   1     0     1     1  114.       114.       0.1000    
   1  1146   1     0     1     1  114.       114.       0.1000    
   1  1147   1     0     1     1  114.       114.       0.1000    
   1  1148   1     0     1     1  114.       114.       0.1000    
   1  1149   1     0     1     1  114.       114.       0.1000    
   1  1150   1     0     1     1  114.       114.       0.1000    
   1  1151   1     0     1     1  114.       114.       0.1000    
   1  1152   1     0     1     1  114.       114.       0.1000    
   1  1153   1     0     1     1  115.       115.       0.1000    
   1  1154   1     0     1     1  115.       115.       0.1000    
   1  1155   1     0     1     1  115.       115.       0.1000    
   1  1156   1     0     1     1  115.       115.       0.1000    
   1  1157   1     0     1     1  115.       115.       0.1000    
   1  1158   1     0     1     1  115.       115.       0.1000    
   1  1159   1     0     1     1  115.       115.       0.1000    
   1  1160   1     0     1     1  115.       115.       0.1000    
   1  1161   1     0     1     1  115.       115.       0.1000    
   1  1162   1     0     1     1  115.       115.       0.1000    
   1  1163   1     0     1     1  116.       116.       0.1000    
   1  1164   1     0     1     1  116.       116.       0.1000    
   1  1165   1     0     1     1  116.       116.       0.1000    
   1  1166   1     0     1     1  116.       116.       0.1000    
   1  1167   1     0     1     1  116.       116.       0.1000    
   1  1168   1     0     1     1  116.       116.       0.1000    
   1  1169   1     0     1     1  116.       116.       0.1000    
   1  1170   1     0     1     1  116.       116.       0.1000    
   1  1171   1     0     1     1  116.       116.       0.1000    
   1  1172   1     0     1     1  116.       116.       0.1000    
   1  1173   1     0     1     1  117.       117.       0.1000    
   1  1174   1     0     1     1  117.       117.       0.1000    
   1  1175   1     0     1     1  117.       117.       0.1000    
   1  1176   1     0     1     1  117.       117.       0.1000    
   1  1177   1     0     1     1  117.       117.       0.1000    
   1  1178   1     0     1     1  117.       117.       0.1000    
   1  1179   1     0     1     1  117.       117.       0.1000    
   1  1180   1     0     1     1  117.       117.       0.1000    
   1  1181   1     0     1     1  117.       117.       0.1000    
   1  1182   1     0     1     1  117.       117.       0.1000    
   1  1183   1     0     1     1  118.       118.       0.1000    
   1  1184   1     0     1     1  118.       118.       0.1000    
   1  1185   1     0     1     1  118.       118.       0.1000    
   1  1186   1     0     1     1  118.       118.       0.1000    
   1  1187   1     0     1     1  118.       118.       0.1000    
   1  1188   1     0     1     1  118.       118.       0.1000    
   1  1189   1     0     1     1  118.       118.       0.1000    
[...]
   2 49712   1     0     1     1  5.11e+03   4.97e+03   0.1000    
   2 49713   1     0     1     1  5.11e+03   4.97e+03   0.1000    
   2 49714   1     0     1     1  5.11e+03   4.97e+03   0.1000    
   2 49715   1     0     1     1  5.11e+03   4.97e+03   0.1000    
   2 49716   1     0     1     1  5.11e+03   4.97e+03   0.1000    
   2 49717   1     0     1     1  5.11e+03   4.97e+03   0.1000    
   2 49718   1     0     1     1  5.12e+03   4.97e+03   0.1000    
   2 49719   1     0     1     1  5.12e+03   4.97e+03   0.1000    
   2 49720   1     0     1     1  5.12e+03   4.97e+03   0.1000    
   2 49721   1     0     1     1  5.12e+03   4.97e+03   0.1000    
   2 49722   1     0     1     1  5.12e+03   4.97e+03   0.1000    
   2 49723   1     0     1     1  5.12e+03   4.97e+03   0.1000    
   2 49724   1     0     1     1  5.12e+03   4.97e+03   0.1000    
   2 49725   1     0     1     1  5.12e+03   4.97e+03   0.1000    
   2 49726   1     0     1     1  5.12e+03   4.97e+03   0.1000    
   2 49727   1     0     1     1  5.12e+03   4.97e+03   0.1000    
   2 49728   1     0     1     1  5.12e+03   4.97e+03   0.1000    
   2 49729   1     0     1     1  5.12e+03   4.97e+03   0.1000    
   2 49730   1     0     1     1  5.12e+03   4.97e+03   0.1000    
   2 49731   1     0     1     1  5.12e+03   4.97e+03   0.1000    
   2 49732   1     0     1     1  5.12e+03   4.97e+03   0.1000    
   2 49733   1     0     1     1  5.12e+03   4.97e+03   0.1000    
   2 49734   1     0     1     1  5.12e+03   4.97e+03   0.1000    
   2 49735   1     0     1     1  5.12e+03   4.97e+03   0.1000    
   2 49736   1     0     1     1  5.12e+03   4.97e+03   0.1000    
   2 49737   1     0     1     1  5.12e+03   4.97e+03   0.1000    
   2 49738   1     0     1     1  5.12e+03   4.97e+03   0.1000    
   2 49739   1     0     1     1  5.12e+03   4.97e+03   0.1000    
   2 49740   1     0     1     1  5.12e+03   4.97e+03   0.1000    
   2 49741   1     0     1     1  5.12e+03   4.97e+03   0.1000    
   2 49742   1     0     1     1  5.12e+03   4.97e+03   0.1000    
   2 49743   1     0     1     1  5.12e+03   4.97e+03   0.1000    
   2 49744   1     0     1     1  5.12e+03   4.97e+03   0.1000    
   2 49745   1     0     1     1  5.12e+03   4.97e+03   0.1000    
   2 49746   1     0     1     1  5.12e+03   4.97e+03   0.1000    
   2 49747   1     0     1     1  5.12e+03   4.97e+03   0.1000    
   2 49748   1     0     1     1  5.12e+03   4.97e+03   0.1000    
   2 49749   1     0     1     1  5.12e+03   4.97e+03   0.1000    
   2 49750   1     0     1     1  5.12e+03   4.97e+03   0.1000    
   2 49751   1     0     1     1  5.12e+03   4.97e+03   0.1000    
   2 49752   1     0     1     1  5.12e+03   4.97e+03   0.1000    
   2 49753   1     0     1     1  5.12e+03   4.97e+03   0.1000    
   2 49754   1     0     1     1  5.12e+03   4.97e+03   0.1000    
   2 49755   1     0     1     1  5.12e+03   4.97e+03   0.1000    
   2 49756   1     0     1     1  5.12e+03   4.97e+03   0.1000    
   2 49757   1     0     1     1  5.12e+03   4.97e+03   0.1000    
   2 49758   1     0     1     1  5.12e+03   4.98e+03   0.1000    
   2 49759   1     0     1     1  5.12e+03   4.98e+03   0.1000    
   2 49760   1     0     1     1  5.12e+03   4.98e+03   0.1000    
   2 49761   1     0     1     1  5.12e+03   4.98e+03   0.1000    
   2 49762   1     0     1     1  5.12e+03   4.98e+03   0.1000    
   2 49763   1     0     1     1  5.12e+03   4.98e+03   0.1000    
   2 49764   1     0     1     1  5.12e+03   4.98e+03   0.1000    
   2 49765   1     0     1     1  5.12e+03   4.98e+03   0.1000    
   2 49766   1     0     1     1  5.12e+03   4.98e+03   0.1000    
   2 49767   1     0     1     1  5.12e+03   4.98e+03   0.1000    
   2 49768   1     0     1     1  5.12e+03   4.98e+03   0.1000    
   2 49769   1     0     1     1  5.12e+03   4.98e+03   0.1000    
   2 49770   1     0     1     1  5.12e+03   4.98e+03   0.1000    
   2 49771   1     0     1     1  5.12e+03   4.98e+03   0.1000    
   2 49772   1     0     1     1  5.12e+03   4.98e+03   0.1000    
   2 49773   1     0     1     1  5.12e+03   4.98e+03   0.1000    
   2 49774   1     0     1     1  5.12e+03   4.98e+03   0.1000    
   2 49775   1     0     1     1  5.12e+03   4.98e+03   0.1000    
   2 49776   1     0     1     1  5.12e+03   4.98e+03   0.1000    
   2 49777   1     0     1     1  5.12e+03   4.98e+03   0.1000    
   2 49778   1     0     1     1  5.12e+03   4.98e+03   0.1000    
   2 49779   1     0     1     1  5.12e+03   4.98e+03   0.1000    
   2 49780   1     0     1     1  5.12e+03   4.98e+03   0.1000    
   2 49781   1     0     1     1  5.12e+03   4.98e+03   0.1000    
   2 49782   1     0     1     1  5.12e+03   4.98e+03   0.1000    
   2 49783   1     0     1     1  5.12e+03   4.98e+03   0.1000    
   2 49784   1     0     1     1  5.12e+03   4.98e+03   0.1000    
   2 49785   1     0     1     1  5.12e+03   4.98e+03   0.1000    
   2 49786   1     0     1     1  5.12e+03   4.98e+03   0.1000    
   2 49787   1     0     1     1  5.12e+03   4.98e+03   0.1000    
   2 49788   1     0     1     1  5.12e+03   4.98e+03   0.1000    
   2 49789   1     0     1     1  5.12e+03   4.98e+03   0.1000    
   2 49790   1     0     1     1  5.12e+03   4.98e+03   0.1000    
   2 49791   1     0     1     1  5.12e+03   4.98e+03   0.1000    
   2 49792   1     0     1     1  5.12e+03   4.98e+03   0.1000    
   2 49793   1     0     1     1  5.12e+03   4.98e+03   0.1000    
   2 49794   1     0     1     1  5.12e+03   4.98e+03   0.1000    
   2 49795   1     0     1     1  5.12e+03   4.98e+03   0.1000    
   2 49796   1     0     1     1  5.12e+03   4.98e+03   0.1000    
   2 49797   1     0     1     1  5.12e+03   4.98e+03   0.1000    
   2 49798   1     0     1     1  5.12e+03   4.98e+03   0.1000    
   2 49799   1     0     1     1  5.12e+03   4.98e+03   0.1000    
   2 49800   1     0     1     1  5.12e+03   4.98e+03   0.1000    
   2 49801   1     0     1     1  5.12e+03   4.98e+03   0.1000    
   2 49802   1     0     1     1  5.12e+03   4.98e+03   0.1000    
   2 49803   1     0     1     1  5.12e+03   4.98e+03   0.1000    
   2 49804   1     0     1     1  5.12e+03   4.98e+03   0.1000    
   2 49805   1     0     1     1  5.12e+03   4.98e+03   0.1000    
   2 49806   1     0     1     1  5.12e+03   4.98e+03   0.1000    
   2 49807   1     0     1     1  5.12e+03   4.98e+03   0.1000    
   2 49808   1     0     1     1  5.12e+03   4.98e+03   0.1000    
   2 49809   1     0     1     1  5.12e+03   4.98e+03   0.1000    
   2 49810   1     0     1     1  5.12e+03   4.98e+03   0.1000    
   2 49811   1     0     1     1  5.12e+03   4.98e+03   0.1000    
   2 49812   1     0     1     1  5.12e+03   4.98e+03   0.1000    
   2 49813   1     0     1     1  5.12e+03   4.98e+03   0.1000    
   2 49814   1     0     1     1  5.12e+03   4.98e+03   0.1000    
   2 49815   1     0     1     1  5.12e+03   4.98e+03   0.1000    
   2 49816   1     0     1     1  5.12e+03   4.98e+03   0.1000    
   2 49817   1     0     1     1  5.12e+03   4.98e+03   0.1000    
   2 49818   1     0     1     1  5.13e+03   4.98e+03   0.1000    
   2 49819   1     0     1     1  5.13e+03   4.98e+03   0.1000    
   2 49820   1     0     1     1  5.13e+03   4.98e+03   0.1000    
   2 49821   1     0     1     1  5.13e+03   4.98e+03   0.1000    
   2 49822   1     0     1     1  5.13e+03   4.98e+03   0.1000    
   2 49823   1     0     1     1  5.13e+03   4.98e+03   0.1000    
   2 49824   1     0     1     1  5.13e+03   4.98e+03   0.1000    
   2 49825   1     0     1     1  5.13e+03   4.98e+03   0.1000    
   2 49826   1     0     1     1  5.13e+03   4.98e+03   0.1000    
   2 49827   1     0     1     1  5.13e+03   4.98e+03   0.1000    
   2 49828   1     0     1     1  5.13e+03   4.98e+03   0.1000    
   2 49829   1     0     1     1  5.13e+03   4.98e+03   0.1000    
   2 49830   1     0     1     1  5.13e+03   4.98e+03   0.1000    
   2 49831   1     0     1     1  5.13e+03   4.98e+03   0.1000    
   2 49832   1     0     1     1  5.13e+03   4.98e+03   0.1000    
   2 49833   1     0     1     1  5.13e+03   4.98e+03   0.1000    
   2 49834   1     0     1     1  5.13e+03   4.98e+03   0.1000    
   2 49835   1     0     1     1  5.13e+03   4.98e+03   0.1000    
   2 49836   1     0     1     1  5.13e+03   4.98e+03   0.1000    
   2 49837   1     0     1     1  5.13e+03   4.98e+03   0.1000    
   2 49838   1     0     1     1  5.13e+03   4.98e+03   0.1000    
   2 49839   1     0     1     1  5.13e+03   4.98e+03   0.1000    
   2 49840   1     0     1     1  5.13e+03   4.98e+03   0.1000    
   2 49841   1     0     1     1  5.13e+03   4.98e+03   0.1000    
   2 49842   1     0     1     1  5.13e+03   4.98e+03   0.1000    
   2 49843   1     0     1     1  5.13e+03   4.98e+03   0.1000    
   2 49844   1     0     1     1  5.13e+03   4.98e+03   0.1000    
   2 49845   1     0     1     1  5.13e+03   4.98e+03   0.1000    
   2 49846   1     0     1     1  5.13e+03   4.98e+03   0.1000    
   2 49847   1     0     1     1  5.13e+03   4.98e+03   0.1000    
   2 49848   1     0     1     1  5.13e+03   4.98e+03   0.1000    
   2 49849   1     0     1     1  5.13e+03   4.98e+03   0.1000    
   2 49850   1     0     1     1  5.13e+03   4.98e+03   0.1000    
   2 49851   1     0     1     1  5.13e+03   4.98e+03   0.1000    
   2 49852   1     0     1     1  5.13e+03   4.98e+03   0.1000    
   2 49853   1     0     1     1  5.13e+03   4.98e+03   0.1000    
   2 49854   1     0     1     1  5.13e+03   4.98e+03   0.1000    
   2 49855   1     0     1     1  5.13e+03   4.98e+03   0.1000    
   2 49856   1     0     1     1  5.13e+03   4.98e+03   0.1000    
   2 49857   1     0     1     1  5.13e+03   4.98e+03   0.1000    
   2 49858   1     0     1     1  5.13e+03   4.99e+03   0.1000    
   2 49859   1     0     1     1  5.13e+03   4.99e+03   0.1000    
   2 49860   1     0     1     1  5.13e+03   4.99e+03   0.1000    
   2 49861   1     0     1     1  5.13e+03   4.99e+03   0.1000    
   2 49862   1     0     1     1  5.13e+03   4.99e+03   0.1000    
   2 49863   1     0     1     1  5.13e+03   4.99e+03   0.1000    
   2 49864   1     0     1     1  5.13e+03   4.99e+03   0.1000    
   2 49865   1     0     1     1  5.13e+03   4.99e+03   0.1000    
   2 49866   1     0     1     1  5.13e+03   4.99e+03   0.1000    
   2 49867   1     0     1     1  5.13e+03   4.99e+03   0.1000    
   2 49868   1     0     1     1  5.13e+03   4.99e+03   0.1000    
   2 49869   1     0     1     1  5.13e+03   4.99e+03   0.1000    
   2 49870   1     0     1     1  5.13e+03   4.99e+03   0.1000    
   2 49871   1     0     1     1  5.13e+03   4.99e+03   0.1000    
   2 49872   1     0     1     1  5.13e+03   4.99e+03   0.1000    
   2 49873   1     0     1     1  5.13e+03   4.99e+03   0.1000    
   2 49874   1     0     1     1  5.13e+03   4.99e+03   0.1000    
   2 49875   1     0     1     1  5.13e+03   4.99e+03   0.1000    
   2 49876   1     0     1     1  5.13e+03   4.99e+03   0.1000    
   2 49877   1     0     1     1  5.13e+03   4.99e+03   0.1000    
   2 49878   1     0     1     1  5.13e+03   4.99e+03   0.1000    
   2 49879   1     0     1     1  5.13e+03   4.99e+03   0.1000    
   2 49880   1     0     1     1  5.13e+03   4.99e+03   0.1000    
   2 49881   1     0     1     1  5.13e+03   4.99e+03   0.1000    
   2 49882   1     0     1     1  5.13e+03   4.99e+03   0.1000    
   2 49883   1     0     1     1  5.13e+03   4.99e+03   0.1000    
   2 49884   1     0     1     1  5.13e+03   4.99e+03   0.1000    
   2 49885   1     0     1     1  5.13e+03   4.99e+03   0.1000    
   2 49886   1     0     1     1  5.13e+03   4.99e+03   0.1000    
   2 49887   1     0     1     1  5.13e+03   4.99e+03   0.1000    
   2 49888   1     0     1     1  5.13e+03   4.99e+03   0.1000    
   2 49889   1     0     1     1  5.13e+03   4.99e+03   0.1000    
   2 49890   1     0     1     1  5.13e+03   4.99e+03   0.1000    
   2 49891   1     0     1     1  5.13e+03   4.99e+03   0.1000    
   2 49892   1     0     1     1  5.13e+03   4.99e+03   0.1000    
   2 49893   1     0     1     1  5.13e+03   4.99e+03   0.1000    
   2 49894   1     0     1     1  5.13e+03   4.99e+03   0.1000    
   2 49895   1     0     1     1  5.13e+03   4.99e+03   0.1000    
   2 49896   1     0     1     1  5.13e+03   4.99e+03   0.1000    
   2 49897   1     0     1     1  5.13e+03   4.99e+03   0.1000    
   2 49898   1     0     1     1  5.13e+03   4.99e+03   0.1000    
   2 49899   1     0     1     1  5.13e+03   4.99e+03   0.1000    
   2 49900   1     0     1     1  5.13e+03   4.99e+03   0.1000    
   2 49901   1     0     1     1  5.13e+03   4.99e+03   0.1000    
   2 49902   1     0     1     1  5.13e+03   4.99e+03   0.1000    
   2 49903   1     0     1     1  5.13e+03   4.99e+03   0.1000    
   2 49904   1     0     1     1  5.13e+03   4.99e+03   0.1000    
   2 49905   1     0     1     1  5.13e+03   4.99e+03   0.1000    
   2 49906   1     0     1     1  5.13e+03   4.99e+03   0.1000    
   2 49907   1     0     1     1  5.13e+03   4.99e+03   0.1000    
   2 49908   1     0     1     1  5.13e+03   4.99e+03   0.1000    
   2 49909   1     0     1     1  5.13e+03   4.99e+03   0.1000    
   2 49910   1     0     1     1  5.13e+03   4.99e+03   0.1000    
   2 49911   1     0     1     1  5.13e+03   4.99e+03   0.1000    
   2 49912   1     0     1     1  5.13e+03   4.99e+03   0.1000    
   2 49913   1     0     1     1  5.13e+03   4.99e+03   0.1000    
   2 49914   1     0     1     1  5.13e+03   4.99e+03   0.1000    
   2 49915   1     0     1     1  5.13e+03   4.99e+03   0.1000    
   2 49916   1     0     1     1  5.13e+03   4.99e+03   0.1000    
   2 49917   1     0     1     1  5.13e+03   4.99e+03   0.1000    
   2 49918   1     0     1     1  5.14e+03   4.99e+03   0.1000    
   2 49919   1     0     1     1  5.14e+03   4.99e+03   0.1000    
   2 49920   1     0     1     1  5.14e+03   4.99e+03   0.1000    
   2 49921   1     0     1     1  5.14e+03   4.99e+03   0.1000    
   2 49922   1     0     1     1  5.14e+03   4.99e+03   0.1000    
   2 49923   1     0     1     1  5.14e+03   4.99e+03   0.1000    
   2 49924   1     0     1     1  5.14e+03   4.99e+03   0.1000    
   2 49925   1     0     1     1  5.14e+03   4.99e+03   0.1000    
   2 49926   1     0     1     1  5.14e+03   4.99e+03   0.1000    
   2 49927   1     0     1     1  5.14e+03   4.99e+03   0.1000    
   2 49928   1     0     1     1  5.14e+03   4.99e+03   0.1000    
   2 49929   1     0     1     1  5.14e+03   4.99e+03   0.1000    
   2 49930   1     0     1     1  5.14e+03   4.99e+03   0.1000    
   2 49931   1     0     1     1  5.14e+03   4.99e+03   0.1000    
   2 49932   1     0     1     1  5.14e+03   4.99e+03   0.1000    
   2 49933   1     0     1     1  5.14e+03   4.99e+03   0.1000    
   2 49934   1     0     1     1  5.14e+03   4.99e+03   0.1000    
   2 49935   1     0     1     1  5.14e+03   4.99e+03   0.1000    
   2 49936   1     0     1     1  5.14e+03   4.99e+03   0.1000    
   2 49937   1     0     1     1  5.14e+03   4.99e+03   0.1000    
   2 49938   1     0     1     1  5.14e+03   4.99e+03   0.1000    
   2 49939   1     0     1     1  5.14e+03   4.99e+03   0.1000    
   2 49940   1     0     1     1  5.14e+03   4.99e+03   0.1000    
   2 49941   1     0     1     1  5.14e+03   4.99e+03   0.1000    
   2 49942   1     0     1     1  5.14e+03   4.99e+03   0.1000    
   2 49943   1     0     1     1  5.14e+03   4.99e+03   0.1000    
   2 49944   1     0     1     1  5.14e+03   4.99e+03   0.1000    
   2 49945   1     0     1     1  5.14e+03   4.99e+03   0.1000    
   2 49946   1     0     1     1  5.14e+03   4.99e+03   0.1000    
   2 49947   1     0     1     1  5.14e+03   4.99e+03   0.1000    
   2 49948   1     0     1     1  5.14e+03   4.99e+03   0.1000    
   2 49949   1     0     1     1  5.14e+03   4.99e+03   0.1000    
   2 49950   1     0     1     1  5.14e+03   4.99e+03   0.1000    
   2 49951   1     0     1     1  5.14e+03   4.99e+03   0.1000    
   2 49952   1     0     1     1  5.14e+03   4.99e+03   0.1000    
   2 49953   1     0     1     1  5.14e+03   4.99e+03   0.1000    
   2 49954   1     0     1     1  5.14e+03   4.99e+03   0.1000    
   2 49955   1     0     1     1  5.14e+03   4.99e+03   0.1000    
   2 49956   1     0     1     1  5.14e+03   4.99e+03   0.1000    
   2 49957   1     0     1     1  5.14e+03   4.99e+03   0.1000    
   2 49958   1     0     1     1  5.14e+03   5.00e+03   0.1000    
   2 49959   1     0     1     1  5.14e+03   5.00e+03   0.1000    
   2 49960   1     0     1     1  5.14e+03   5.00e+03   0.1000    
   2 49961   1     0     1     1  5.14e+03   5.00e+03   0.1000    
   2 49962   1     0     1     1  5.14e+03   5.00e+03   0.1000    
   2 49963   1     0     1     1  5.14e+03   5.00e+03   0.1000    
   2 49964   1     0     1     1  5.14e+03   5.00e+03   0.1000    
   2 49965   1     0     1     1  5.14e+03   5.00e+03   0.1000    
   2 49966   1     0     1     1  5.14e+03   5.00e+03   0.1000    
   2 49967   1     0     1     1  5.14e+03   5.00e+03   0.1000    
   2 49968   1     0     1     1  5.14e+03   5.00e+03   0.1000    
   2 49969   1     0     1     1  5.14e+03   5.00e+03   0.1000    
   2 49970   1     0     1     1  5.14e+03   5.00e+03   0.1000    
   2 49971   1     0     1     1  5.14e+03   5.00e+03   0.1000    
   2 49972   1     0     1     1  5.14e+03   5.00e+03   0.1000    
   2 49973   1     0     1     1  5.14e+03   5.00e+03   0.1000    
   2 49974   1     0     1     1  5.14e+03   5.00e+03   0.1000    
   2 49975   1     0     1     1  5.14e+03   5.00e+03   0.1000    
   2 49976   1     0     1     1  5.14e+03   5.00e+03   0.1000    
   2 49977   1     0     1     1  5.14e+03   5.00e+03   0.1000    
   2 49978   1     0     1     1  5.14e+03   5.00e+03   0.1000    
   2 49979   1     0     1     1  5.14e+03   5.00e+03   0.1000    
   2 49980   1     0     1     1  5.14e+03   5.00e+03   0.1000    
   2 49981   1     0     1     1  5.14e+03   5.00e+03   0.1000    
   2 49982   1     0     1     1  5.14e+03   5.00e+03   0.1000    
   2 49983   1     0     1     1  5.14e+03   5.00e+03   0.1000    
   2 49984   1     0     1     1  5.14e+03   5.00e+03   0.1000    
   2 49985   1     0     1     1  5.14e+03   5.00e+03   0.1000    
   2 49986   1     0     1     1  5.14e+03   5.00e+03   0.1000    
   2 49987   1     0     1     1  5.14e+03   5.00e+03   0.1000    
   2 49988   1     0     1     1  5.14e+03   5.00e+03   0.1000    
   2 49989   1     0     1     1  5.14e+03   5.00e+03   0.1000    
   2 49990   1     0     1     1  5.14e+03   5.00e+03   0.1000    
   2 49991   1     0     1     1  5.14e+03   5.00e+03   0.1000    
   2 49992   1     0     1     1  5.14e+03   5.00e+03   0.1000    
   2 49993   1     0     1     1  5.14e+03   5.00e+03   0.1000    
   2 49994   1     0     1     1  5.14e+03   5.00e+03   0.1000    
   2 49995   1     0     1     1  5.14e+03   5.00e+03   0.1000    
   2 49996   1     0     1     1  5.14e+03   5.00e+03   0.1000    
   2 49997   1     0     1     1  5.14e+03   5.00e+03   0.1000    
   2 49998   1     0     1     1  5.14e+03   5.00e+03   0.1000    
   2 49999   1     0     1     1  5.14e+03   5.00e+03   0.1000    
   2 50000   1     0     1     1  5.14e+03   5.00e+03   0.1000    
   2 50001   1     0     1     1  5.14e+03   5.00e+03   0.1000    
   2 50002   1     0     1     1  5.14e+03   5.00e+03   0.1000    
   2 50003   1     0     1     1  5.14e+03   5.00e+03   0.1000    
   2 50004   1     0     1     1  5.14e+03   5.00e+03   0.1000    
   2 50005   1     0     1     1  5.14e+03   5.00e+03   0.1000    
   2 50006   1     0     1     1  5.14e+03   5.00e+03   0.1000    
   2 50007   1     0     1     1  5.14e+03   5.00e+03   0.1000    
   2 50008   1     0     1     1  5.14e+03   5.00e+03   0.07100   
                          
 THE ANALYSIS HAS COMPLETED SUCCESSFULLY
