1

   Abaqus 3DEXPERIENCE R2019x                                  Date 24-sep-2020   Time 16:38:06
   For use by NTNU NORGES TEKNISK NATURVITENSKAPELIGE UNIVERSITET under license from Dassault Systemes or its subsidiary.

                                                                                 
                                                                                 
 STEP    1     INCREMENT     1     STEP TIME    0.00    


                        S T E P       1     T R A N S I E N T   H E A T   T R A N S F E R


                                                                                          

     AUTOMATIC TIME CONTROL WITH -
          A SUGGESTED INITIAL TIME INCREMENT OF                1.000E-03
          AND A TOTAL TIME PERIOD OF                            10.0    
          THE MINIMUM TIME INCREMENT ALLOWED IS                1.000E-06
          THE MAXIMUM TIME INCREMENT ALLOWED IS                0.100    

     THE SIZE OF THE TIME INCREMENT IS CONTROLLED BY -
          THE TEMPERATURE CHANGE PER INCREMENT NOT EXCEEDING           1.000E+03

 CONVERGENCE TOLERANCE PARAMETERS FOR HEAT FLUX
     CRITERION FOR RESIDUAL HEAT FLUX FOR A NONLINEAR PROBLEM          5.000E-03
     CRITERION FOR TEMP.    CORRECTION IN A NONLINEAR PROBLEM          1.000E-02
     INITIAL VALUE OF TIME AVERAGE HEAT FLUX                           1.000E-02
     AVERAGE HEAT FLUX IS TIME AVERAGE HEAT FLUX
     ALTERNATE CRIT. FOR RESIDUAL HEAT FLUX FOR A NONLINEAR PROBLEM    2.000E-02
     CRITERION FOR ZERO HEAT FLUX RELATIVE TO TIME AVRG. HEAT FLUX     1.000E-05
     CRITERION FOR RESIDUAL HEAT FLUX WHEN THERE IS ZERO FLUX          1.000E-05
     CRITERION FOR TEMP.    CORRECTION WHEN THERE IS ZERO FLUX         1.000E-03
     CRITERION FOR RESIDUAL HEAT FLUX FOR A LINEAR INCREMENT           1.000E-08
     FIELD CONVERSION RATIO                                             1.00    
     CRITERION FOR ZERO HEAT FLUX REL. TO TIME AVRG. MAX. HEAT FLUX    1.000E-05

     VOLUMETRIC STRAIN COMPATIBILITY TOLERANCE FOR HYBRID SOLIDS       1.000E-05
     AXIAL STRAIN COMPATIBILITY TOLERANCE FOR HYBRID BEAMS             1.000E-05
     TRANS. SHEAR STRAIN COMPATIBILITY TOLERANCE FOR HYBRID BEAMS      1.000E-05
     SOFT CONTACT CONSTRAINT COMPATIBILITY TOLERANCE FOR P>P0          5.000E-03
     SOFT CONTACT CONSTRAINT COMPATIBILITY TOLERANCE FOR P=0.0         0.100    
     CONTACT FORCE ERROR TOLERANCE FOR CONVERT SDI=YES                 1.00    
     DISPLACEMENT COMPATIBILITY TOLERANCE FOR DCOUP ELEMENTS           1.000E-05
     ROTATION COMPATIBILITY TOLERANCE FOR DCOUP ELEMENTS               1.000E-05

 TIME INCREMENTATION CONTROL PARAMETERS:
     FIRST EQUILIBRIUM ITERATION FOR CONSECUTIVE DIVERGENCE CHECK              4
     EQUILIBRIUM ITERATION AT WHICH LOG. CONVERGENCE RATE CHECK BEGINS         8
     EQUILIBRIUM ITERATION AFTER WHICH ALTERNATE RESIDUAL IS USED              9
     MAXIMUM EQUILIBRIUM ITERATIONS ALLOWED                                   16
     EQUILIBRIUM ITERATION COUNT FOR CUT-BACK IN NEXT INCREMENT               10
     MAXIMUM EQUILIB. ITERS IN TWO INCREMENTS FOR TIME INCREMENT INCREASE      4
     MAXIMUM ITERATIONS FOR SEVERE DISCONTINUITIES                            12
     MAXIMUM ATTEMPTS ALLOWED IN AN INCREMENT                                  5
     MAXIMUM DISCON. ITERS IN TWO INCREMENTS FOR TIME INCREMENT INCREASE       6
     MAXIMUM CONTACT AUGMENTATIONS FOR *SURFACE BEHAVIOR,AUGMENTED LAGRANGE   50
     CONSECUTIVE INCS MEETING TIME INTEG. TOL. FOR TIME INC. INCREASE          3
     CUT-BACK FACTOR AFTER DIVERGENCE                                 0.2500    
     CUT-BACK FACTOR FOR TOO SLOW CONVERGENCE                         0.5000    
     CUT-BACK FACTOR AFTER TOO MANY EQUILIBRIUM ITERATIONS            0.7500    
     CUT-BACK FACTOR AFTER TOO MANY SEVERE DISCONTINUITY ITERATIONS   0.2500    
     CUT-BACK FACTOR AFTER PROBLEMS IN ELEMENT ASSEMBLY               0.2500    
     INCREASE FACTOR AFTER TWO INCREMENTS THAT CONVERGE QUICKLY        1.500    
     MAX. TIME INCREMENT INCREASE FACTOR ALLOWED                       1.500    
     MAX. TIME INCREMENT INCREASE FACTOR ALLOWED (DYNAMICS)            1.250    
     MAX. TIME INCREMENT INCREASE FACTOR ALLOWED (DIFFUSION)           2.000    
     MINIMUM TIME INCREMENT RATIO FOR EXTRAPOLATION TO OCCUR          0.1000    
     CUT-BACK FACTOR WHEN TIME INTEGRATION ACCURACY TOL. EXCEEDED     0.8500    
     MAX. RATIO OF TIME INTEG. MEASURE TO TOL. FOR TIME INC. INCREASE 0.7500    
     INCREASE FACTOR FOR TIME INCREMENT WHEN POSSIBLE                 0.8000    
     MIN. TIME INC. INCREASE FACTOR IN LINEAR TRANSIENT PROBLEMS      0.9500    
     MAX. RATIO OF TIME INCREMENT TO STABILITY LIMIT                   1.000    
     FRACTION OF STABILITY LIMIT FOR NEW TIME INCREMENT               0.9500    
     TIME INCREMENT INCREASE FACTOR BEFORE A TIME POINT                1.000    
     GLOBAL STABILIZATION CONTROL IS NOT USED

          PRINT OF INCREMENT NUMBER, TIME, ETC., EVERY    1  INCREMENTS

     THE MAXIMUM NUMBER OF INCREMENTS IN THIS STEP IS                  100000

     EXTRAPOLATION WILL NOT BE USED

     CHARACTERISTIC ELEMENT LENGTH     9.550E-03

     DETAILS REGARDING ACTUAL SOLUTION WAVEFRONT REQUESTED

     DETAILED OUTPUT OF DIAGNOSTICS TO DATABASE REQUESTED

     PRINT OF INCREMENT NUMBER, TIME, ETC., TO THE MESSAGE FILE EVERY     1  INCREMENTS

     ELEMENT OPERATIONS WILL BE CARRIED OUT IN PARALLEL USING   2 PROCESSORS

     PARALLEL CONTACT TRACKING ENABLED


     COLLECTING MODEL CONSTRAINT INFORMATION FOR OVERCONSTRAINT CHECKS

     COLLECTING STEP CONSTRAINT INFORMATION FOR OVERCONSTRAINT CHECKS

 ***NOTE: Toolpath-mesh intersection module: INFO: Element set 
          ASSEMBLY_ADDELEMENT added.

 ***NOTE: Toolpath-mesh intersection module: INFO:  Properties for event 
          series: materialpath. Type: Box. Transition between segments is 
          active. Box length and offset in local x direction are set to zero. 
          Box size: (0.000000,0.020000,0.001150). Offsets: 
          (0.000000,0.000000,0.000575). Absolute offsets: True. Algorithm: 
          SubElement.

 ***NOTE: Toolpath-mesh intersection module: INFO: Element set 
          ASSEMBLY__AM-MODEL-1__ALLBUILDPARTS__ added.

 ***NOTE: Toolpath-mesh intersection module: INFO:  Properties for event 
          series: heatpathj. Type: Box. Box size: (0.006000,0.040000,0.001725). 
          Offsets: (-0.333333,0.000000,1.000000). Absolute offsets: False. 
          Algorithm: SubSegment. Divisions: (9,9,9).

 ***NOTE: Toolpath-mesh intersection module: INFO: Sum of all weights: 0.960314.
  
     ASYNCHRONOUS OUTPUT DATABASE FRAME FLUSH STARTED
  


  INCREMENT     1 STARTS. ATTEMPT NUMBER  1, TIME INCREMENT  1.000E-03

 ***NOTE: Domain 1 of 1: 0 elements intersected event series material path

 ***NOTE: Domain 1 of 1: 11 elements intersected event series heat pathj
 
     INITIAL ELEMENT LOAD BALANCE
            PROCESS    1   THREAD     NUMBER OF ELEMENTS
                              1            118
                              2            118

  NUMBER OF EQUATIONS =       363     NUMBER OF RHS =    1
  NUMBER OF FLOATING PT. OPERATIONS =  4.79E+05

  USING THE DIRECT SOLVER WITH   2 PROCESSORS

     CHECK POINT   START OF SOLVER    

     CHECK POINT  END OF SOLVER       

       ELAPSED USER TIME (SEC)      =  0.10000    
       ELAPSED SYSTEM TIME (SEC)    =   0.0000    
       ELAPSED TOTAL CPU TIME (SEC) =  0.10000    
       ELAPSED WALLCLOCK TIME (SEC) =          0

               CONVERGENCE CHECKS FOR EQUILIBRIUM ITERATION     1


 AVERAGE HEAT FLUX                  5.608E-03   TIME AVG. HEAT FLUX   5.608E-03
 LARGEST RESIDUAL HEAT FLUX        -4.268E-10   AT NODE         42   DOF 11
   INSTANCE: THERMAL-1                                                                       
 LARGEST INCREMENT OF TEMP.         9.556E-03   AT NODE         42   DOF 11
   INSTANCE: THERMAL-1                                                                       
 LARGEST CORRECTION TO TEMP.        9.556E-03   AT NODE         42   DOF 11
   INSTANCE: THERMAL-1                                                                       
 ESTIMATE OF TEMP.    CORRECTION   -3.506E-13
 HEAT FLUX EQUILIB. ACCEPTED BASED ON SMALL RESIDUAL AND ESTIMATED CORRECTION

 MAXIMUM NON-PRESCRIBED INCREMENT IN TEMPERATURE IS   9.556E-03

 ITERATION SUMMARY FOR THE INCREMENT:   1 TOTAL ITERATIONS, OF WHICH
   0 ARE SEVERE DISCONTINUITY ITERATIONS AND  1 ARE EQUILIBRIUM ITERATIONS.

 TIME INCREMENT COMPLETED  1.000E-03,  FRACTION OF STEP COMPLETED  1.000E-04
 STEP TIME COMPLETED       1.000E-03,  TOTAL TIME COMPLETED        1.000E-03
  
     ASYNCHRONOUS OUTPUT DATABASE FRAME FLUSH STARTED
  


  INCREMENT     2 STARTS. ATTEMPT NUMBER  1, TIME INCREMENT  1.000E-03

 ***NOTE: Domain 1 of 1: 0 elements intersected event series material path

 ***NOTE: Domain 1 of 1: 11 elements intersected event series heat pathj

  NUMBER OF EQUATIONS =       363     NUMBER OF RHS =    1
  NUMBER OF FLOATING PT. OPERATIONS =  4.79E+05

  USING THE DIRECT SOLVER WITH   2 PROCESSORS

     CHECK POINT   START OF SOLVER    

     CHECK POINT  END OF SOLVER       

       ELAPSED USER TIME (SEC)      =   0.0000    
       ELAPSED SYSTEM TIME (SEC)    =   0.0000    
       ELAPSED TOTAL CPU TIME (SEC) =   0.0000    
       ELAPSED WALLCLOCK TIME (SEC) =          0

               CONVERGENCE CHECKS FOR EQUILIBRIUM ITERATION     1


 AVERAGE HEAT FLUX                  0.224       TIME AVG. HEAT FLUX   0.115    
 LARGEST RESIDUAL HEAT FLUX        -4.280E-10   AT NODE         42   DOF 11
   INSTANCE: THERMAL-1                                                                       
 LARGEST INCREMENT OF TEMP.         9.569E-03   AT NODE         42   DOF 11
   INSTANCE: THERMAL-1                                                                       
 LARGEST CORRECTION TO TEMP.        9.569E-03   AT NODE         42   DOF 11
   INSTANCE: THERMAL-1                                                                       
          THE HEAT FLUX EQUILIBRIUM RESPONSE WAS LINEAR IN THIS INCREMENT

 MAXIMUM NON-PRESCRIBED INCREMENT IN TEMPERATURE IS   9.569E-03

 ITERATION SUMMARY FOR THE INCREMENT:   1 TOTAL ITERATIONS, OF WHICH
   0 ARE SEVERE DISCONTINUITY ITERATIONS AND  1 ARE EQUILIBRIUM ITERATIONS.

 TIME INCREMENT COMPLETED  1.000E-03,  FRACTION OF STEP COMPLETED  2.000E-04
 STEP TIME COMPLETED       2.000E-03,  TOTAL TIME COMPLETED        2.000E-03
  
     ASYNCHRONOUS OUTPUT DATABASE FRAME FLUSH STARTED
  


  INCREMENT     3 STARTS. ATTEMPT NUMBER  1, TIME INCREMENT  1.000E-03

 ***NOTE: Domain 1 of 1: 0 elements intersected event series material path

 ***NOTE: Domain 1 of 1: 11 elements intersected event series heat pathj

  NUMBER OF EQUATIONS =       363     NUMBER OF RHS =    1
  NUMBER OF FLOATING PT. OPERATIONS =  4.79E+05

  USING THE DIRECT SOLVER WITH   2 PROCESSORS

     CHECK POINT   START OF SOLVER    

     CHECK POINT  END OF SOLVER       

       ELAPSED USER TIME (SEC)      =   0.0000    
       ELAPSED SYSTEM TIME (SEC)    =   0.0000    
       ELAPSED TOTAL CPU TIME (SEC) =   0.0000    
       ELAPSED WALLCLOCK TIME (SEC) =          0

               CONVERGENCE CHECKS FOR EQUILIBRIUM ITERATION     1


 AVERAGE HEAT FLUX                  0.213       TIME AVG. HEAT FLUX   0.148    
 LARGEST RESIDUAL HEAT FLUX        -4.292E-10   AT NODE         42   DOF 11
   INSTANCE: THERMAL-1                                                                       
 LARGEST INCREMENT OF TEMP.         9.582E-03   AT NODE         42   DOF 11
   INSTANCE: THERMAL-1                                                                       
 LARGEST CORRECTION TO TEMP.        9.582E-03   AT NODE         42   DOF 11
   INSTANCE: THERMAL-1                                                                       
          THE HEAT FLUX EQUILIBRIUM RESPONSE WAS LINEAR IN THIS INCREMENT

 MAXIMUM NON-PRESCRIBED INCREMENT IN TEMPERATURE IS   9.582E-03
          TIME INCREMENT MAY NOW INCREASE TO    2.000E-03

 ITERATION SUMMARY FOR THE INCREMENT:   1 TOTAL ITERATIONS, OF WHICH
   0 ARE SEVERE DISCONTINUITY ITERATIONS AND  1 ARE EQUILIBRIUM ITERATIONS.

 TIME INCREMENT COMPLETED  1.000E-03,  FRACTION OF STEP COMPLETED  3.000E-04
 STEP TIME COMPLETED       3.000E-03,  TOTAL TIME COMPLETED        3.000E-03
  
     ASYNCHRONOUS OUTPUT DATABASE FRAME FLUSH STARTED
  


  INCREMENT     4 STARTS. ATTEMPT NUMBER  1, TIME INCREMENT  2.000E-03

 ***NOTE: Domain 1 of 1: 0 elements intersected event series material path

 ***NOTE: Domain 1 of 1: 11 elements intersected event series heat pathj

  NUMBER OF EQUATIONS =       363     NUMBER OF RHS =    1
  NUMBER OF FLOATING PT. OPERATIONS =  4.79E+05

  USING THE DIRECT SOLVER WITH   2 PROCESSORS

     CHECK POINT   START OF SOLVER    

     CHECK POINT  END OF SOLVER       

       ELAPSED USER TIME (SEC)      =   0.0000    
       ELAPSED SYSTEM TIME (SEC)    =   0.0000    
       ELAPSED TOTAL CPU TIME (SEC) =   0.0000    
       ELAPSED WALLCLOCK TIME (SEC) =          0

               CONVERGENCE CHECKS FOR EQUILIBRIUM ITERATION     1


 AVERAGE HEAT FLUX                  0.194       TIME AVG. HEAT FLUX   0.159    
 LARGEST RESIDUAL HEAT FLUX        -1.722E-09   AT NODE         42   DOF 11
   INSTANCE: THERMAL-1                                                                       
 LARGEST INCREMENT OF TEMP.         1.919E-02   AT NODE         42   DOF 11
   INSTANCE: THERMAL-1                                                                       
 LARGEST CORRECTION TO TEMP.        1.919E-02   AT NODE         42   DOF 11
   INSTANCE: THERMAL-1                                                                       
 ESTIMATE OF TEMP.    CORRECTION   -2.824E-12
 HEAT FLUX EQUILIB. ACCEPTED BASED ON SMALL RESIDUAL AND ESTIMATED CORRECTION

 MAXIMUM NON-PRESCRIBED INCREMENT IN TEMPERATURE IS   1.919E-02
          TIME INCREMENT MAY NOW INCREASE TO    4.000E-03

 ITERATION SUMMARY FOR THE INCREMENT:   1 TOTAL ITERATIONS, OF WHICH
   0 ARE SEVERE DISCONTINUITY ITERATIONS AND  1 ARE EQUILIBRIUM ITERATIONS.

 TIME INCREMENT COMPLETED  2.000E-03,  FRACTION OF STEP COMPLETED  5.000E-04
 STEP TIME COMPLETED       5.000E-03,  TOTAL TIME COMPLETED        5.000E-03
  
     ASYNCHRONOUS OUTPUT DATABASE FRAME FLUSH STARTED
  


  INCREMENT     5 STARTS. ATTEMPT NUMBER  1, TIME INCREMENT  4.000E-03

 ***NOTE: Domain 1 of 1: 0 elements intersected event series material path

 ***NOTE: Domain 1 of 1: 11 elements intersected event series heat pathj

  NUMBER OF EQUATIONS =       363     NUMBER OF RHS =    1
  NUMBER OF FLOATING PT. OPERATIONS =  4.79E+05

  USING THE DIRECT SOLVER WITH   2 PROCESSORS

     CHECK POINT   START OF SOLVER    

     CHECK POINT  END OF SOLVER       

       ELAPSED USER TIME (SEC)      =   0.0000    
       ELAPSED SYSTEM TIME (SEC)    =   0.0000    
       ELAPSED TOTAL CPU TIME (SEC) =   0.0000    
       ELAPSED WALLCLOCK TIME (SEC) =          0

               CONVERGENCE CHECKS FOR EQUILIBRIUM ITERATION     1


 AVERAGE HEAT FLUX                  0.172       TIME AVG. HEAT FLUX   0.162    
 LARGEST RESIDUAL HEAT FLUX        -6.862E-09   AT NODE         42   DOF 11
   INSTANCE: THERMAL-1                                                                       
 LARGEST INCREMENT OF TEMP.         3.831E-02   AT NODE         42   DOF 11
   INSTANCE: THERMAL-1                                                                       
 LARGEST CORRECTION TO TEMP.        3.831E-02   AT NODE         42   DOF 11
   INSTANCE: THERMAL-1                                                                       
 ESTIMATE OF TEMP.    CORRECTION   -2.245E-11
 HEAT FLUX EQUILIB. ACCEPTED BASED ON SMALL RESIDUAL AND ESTIMATED CORRECTION

 MAXIMUM NON-PRESCRIBED INCREMENT IN TEMPERATURE IS   3.831E-02
          TIME INCREMENT MAY NOW INCREASE TO    8.000E-03

 ITERATION SUMMARY FOR THE INCREMENT:   1 TOTAL ITERATIONS, OF WHICH
   0 ARE SEVERE DISCONTINUITY ITERATIONS AND  1 ARE EQUILIBRIUM ITERATIONS.

 TIME INCREMENT COMPLETED  4.000E-03,  FRACTION OF STEP COMPLETED  9.000E-04
 STEP TIME COMPLETED       9.000E-03,  TOTAL TIME COMPLETED        9.000E-03
  
     ASYNCHRONOUS OUTPUT DATABASE FRAME FLUSH STARTED
  


  INCREMENT     6 STARTS. ATTEMPT NUMBER  1, TIME INCREMENT  8.000E-03

 ***NOTE: Domain 1 of 1: 2 elements intersected event series material path

 ***NOTE: Domain 1 of 1: 11 elements intersected event series heat pathj

  NUMBER OF EQUATIONS =       369     NUMBER OF RHS =    1
  NUMBER OF FLOATING PT. OPERATIONS =  5.20E+05

  USING THE DIRECT SOLVER WITH   2 PROCESSORS

     CHECK POINT   START OF SOLVER    

     CHECK POINT  END OF SOLVER       

       ELAPSED USER TIME (SEC)      =   0.0000    
       ELAPSED SYSTEM TIME (SEC)    =   0.0000    
       ELAPSED TOTAL CPU TIME (SEC) =   0.0000    
       ELAPSED WALLCLOCK TIME (SEC) =          0

               CONVERGENCE CHECKS FOR EQUILIBRIUM ITERATION     1


 AVERAGE HEAT FLUX                  0.799       TIME AVG. HEAT FLUX   0.268    
 LARGEST RESIDUAL HEAT FLUX        -3.604E-02   AT NODE         22   DOF 11
   INSTANCE: THERMAL-1                                                                       
 LARGEST INCREMENT OF TEMP.          3.66       AT NODE          2   DOF 11
   INSTANCE: THERMAL-1                                                                       
 LARGEST CORRECTION TO TEMP.         3.66       AT NODE          2   DOF 11
   INSTANCE: THERMAL-1                                                                       
          HEAT FLUX EQUILIBRIUM NOT ACHIEVED WITHIN TOLERANCE.

  NUMBER OF EQUATIONS =       369     NUMBER OF RHS =    1
  NUMBER OF FLOATING PT. OPERATIONS =  5.20E+05

  USING THE DIRECT SOLVER WITH   2 PROCESSORS

     CHECK POINT   START OF SOLVER    

     CHECK POINT  END OF SOLVER       

       ELAPSED USER TIME (SEC)      =   0.0000    
       ELAPSED SYSTEM TIME (SEC)    =   0.0000    
       ELAPSED TOTAL CPU TIME (SEC) =   0.0000    
       ELAPSED WALLCLOCK TIME (SEC) =          0

               CONVERGENCE CHECKS FOR EQUILIBRIUM ITERATION     2


 AVERAGE HEAT FLUX                  0.799       TIME AVG. HEAT FLUX   0.268    
 LARGEST RESIDUAL HEAT FLUX         3.537E-05   AT NODE         22   DOF 11
   INSTANCE: THERMAL-1                                                                       
 LARGEST INCREMENT OF TEMP.          3.65       AT NODE          2   DOF 11
   INSTANCE: THERMAL-1                                                                       
 LARGEST CORRECTION TO TEMP.       -3.310E-03   AT NODE         23   DOF 11
   INSTANCE: THERMAL-1                                                                       
          THE HEAT FLUX EQUILIBRIUM EQUATIONS HAVE CONVERGED

 MAXIMUM NON-PRESCRIBED INCREMENT IN TEMPERATURE IS    3.65    
          TIME INCREMENT MAY NOW INCREASE TO    1.200E-02

 ITERATION SUMMARY FOR THE INCREMENT:   2 TOTAL ITERATIONS, OF WHICH
   0 ARE SEVERE DISCONTINUITY ITERATIONS AND  2 ARE EQUILIBRIUM ITERATIONS.

 TIME INCREMENT COMPLETED  8.000E-03,  FRACTION OF STEP COMPLETED  1.700E-03
 STEP TIME COMPLETED       1.700E-02,  TOTAL TIME COMPLETED        1.700E-02
  
     ASYNCHRONOUS OUTPUT DATABASE FRAME FLUSH STARTED
  


  INCREMENT     7 STARTS. ATTEMPT NUMBER  1, TIME INCREMENT  1.200E-02

 ***NOTE: Domain 1 of 1: 0 elements intersected event series material path

 ***NOTE: Domain 1 of 1: 11 elements intersected event series heat pathj

  NUMBER OF EQUATIONS =       369     NUMBER OF RHS =    1
  NUMBER OF FLOATING PT. OPERATIONS =  5.20E+05

  USING THE DIRECT SOLVER WITH   2 PROCESSORS

     CHECK POINT   START OF SOLVER    

     CHECK POINT  END OF SOLVER       

       ELAPSED USER TIME (SEC)      =   0.0000    
       ELAPSED SYSTEM TIME (SEC)    =   0.0000    
       ELAPSED TOTAL CPU TIME (SEC) =   0.0000    
       ELAPSED WALLCLOCK TIME (SEC) =          0

               CONVERGENCE CHECKS FOR EQUILIBRIUM ITERATION     1


 AVERAGE HEAT FLUX                   1.05       TIME AVG. HEAT FLUX   0.379    
 LARGEST RESIDUAL HEAT FLUX        -0.126       AT NODE         22   DOF 11
   INSTANCE: THERMAL-1                                                                       
 LARGEST INCREMENT OF TEMP.          5.26       AT NODE          2   DOF 11
   INSTANCE: THERMAL-1                                                                       
 LARGEST CORRECTION TO TEMP.         5.26       AT NODE          2   DOF 11
   INSTANCE: THERMAL-1                                                                       
          HEAT FLUX EQUILIBRIUM NOT ACHIEVED WITHIN TOLERANCE.

  NUMBER OF EQUATIONS =       369     NUMBER OF RHS =    1
  NUMBER OF FLOATING PT. OPERATIONS =  5.20E+05

  USING THE DIRECT SOLVER WITH   2 PROCESSORS

     CHECK POINT   START OF SOLVER    

     CHECK POINT  END OF SOLVER       

       ELAPSED USER TIME (SEC)      =   0.0000    
       ELAPSED SYSTEM TIME (SEC)    =   0.0000    
       ELAPSED TOTAL CPU TIME (SEC) =   0.0000    
       ELAPSED WALLCLOCK TIME (SEC) =          0

               CONVERGENCE CHECKS FOR EQUILIBRIUM ITERATION     2


 AVERAGE HEAT FLUX                   1.05       TIME AVG. HEAT FLUX   0.379    
 LARGEST RESIDUAL HEAT FLUX        -1.694E-05   AT NODE         22   DOF 11
   INSTANCE: THERMAL-1                                                                       
 LARGEST INCREMENT OF TEMP.          5.24       AT NODE          2   DOF 11
   INSTANCE: THERMAL-1                                                                       
 LARGEST CORRECTION TO TEMP.       -1.303E-02   AT NODE         22   DOF 11
   INSTANCE: THERMAL-1                                                                       
          THE HEAT FLUX EQUILIBRIUM EQUATIONS HAVE CONVERGED

 MAXIMUM NON-PRESCRIBED INCREMENT IN TEMPERATURE IS    5.24    
          TIME INCREMENT MAY NOW INCREASE TO    1.800E-02

 ITERATION SUMMARY FOR THE INCREMENT:   2 TOTAL ITERATIONS, OF WHICH
   0 ARE SEVERE DISCONTINUITY ITERATIONS AND  2 ARE EQUILIBRIUM ITERATIONS.

 TIME INCREMENT COMPLETED  1.200E-02,  FRACTION OF STEP COMPLETED  2.900E-03
 STEP TIME COMPLETED       2.900E-02,  TOTAL TIME COMPLETED        2.900E-02
  
     ASYNCHRONOUS OUTPUT DATABASE FRAME FLUSH STARTED
  


  INCREMENT     8 STARTS. ATTEMPT NUMBER  1, TIME INCREMENT  1.800E-02

 ***NOTE: Domain 1 of 1: 2 elements intersected event series material path

 ***NOTE: Domain 1 of 1: 11 elements intersected event series heat pathj

  NUMBER OF EQUATIONS =       369     NUMBER OF RHS =    1
  NUMBER OF FLOATING PT. OPERATIONS =  5.20E+05

  USING THE DIRECT SOLVER WITH   2 PROCESSORS

     CHECK POINT   START OF SOLVER    

     CHECK POINT  END OF SOLVER       

       ELAPSED USER TIME (SEC)      =   0.0000    
       ELAPSED SYSTEM TIME (SEC)    =   0.0000    
       ELAPSED TOTAL CPU TIME (SEC) =   0.0000    
       ELAPSED WALLCLOCK TIME (SEC) =          0

               CONVERGENCE CHECKS FOR EQUILIBRIUM ITERATION     1


 AVERAGE HEAT FLUX                   1.19       TIME AVG. HEAT FLUX   0.480    
 LARGEST RESIDUAL HEAT FLUX        -0.176       AT NODE         22   DOF 11
   INSTANCE: THERMAL-1                                                                       
 LARGEST INCREMENT OF TEMP.          5.79       AT NODE          2   DOF 11
   INSTANCE: THERMAL-1                                                                       
 LARGEST CORRECTION TO TEMP.         5.79       AT NODE          2   DOF 11
   INSTANCE: THERMAL-1                                                                       
          HEAT FLUX EQUILIBRIUM NOT ACHIEVED WITHIN TOLERANCE.

  NUMBER OF EQUATIONS =       369     NUMBER OF RHS =    1
  NUMBER OF FLOATING PT. OPERATIONS =  5.20E+05

  USING THE DIRECT SOLVER WITH   2 PROCESSORS

     CHECK POINT   START OF SOLVER    

     CHECK POINT  END OF SOLVER       

       ELAPSED USER TIME (SEC)      =  0.10000    
       ELAPSED SYSTEM TIME (SEC)    =   0.0000    
       ELAPSED TOTAL CPU TIME (SEC) =  0.10000    
       ELAPSED WALLCLOCK TIME (SEC) =          0

               CONVERGENCE CHECKS FOR EQUILIBRIUM ITERATION     2


 AVERAGE HEAT FLUX                   1.19       TIME AVG. HEAT FLUX   0.480    
 LARGEST RESIDUAL HEAT FLUX         1.018E-03   AT NODE         22   DOF 11
   INSTANCE: THERMAL-1                                                                       
 LARGEST INCREMENT OF TEMP.          5.76       AT NODE          2   DOF 11
   INSTANCE: THERMAL-1                                                                       
 LARGEST CORRECTION TO TEMP.       -3.100E-02   AT NODE          2   DOF 11
   INSTANCE: THERMAL-1                                                                       
          THE HEAT FLUX EQUILIBRIUM EQUATIONS HAVE CONVERGED

 MAXIMUM NON-PRESCRIBED INCREMENT IN TEMPERATURE IS    5.76    
          TIME INCREMENT MAY NOW INCREASE TO    2.700E-02

 ITERATION SUMMARY FOR THE INCREMENT:   2 TOTAL ITERATIONS, OF WHICH
   0 ARE SEVERE DISCONTINUITY ITERATIONS AND  2 ARE EQUILIBRIUM ITERATIONS.

 TIME INCREMENT COMPLETED  1.800E-02,  FRACTION OF STEP COMPLETED  4.700E-03
 STEP TIME COMPLETED       4.700E-02,  TOTAL TIME COMPLETED        4.700E-02
  
     ASYNCHRONOUS OUTPUT DATABASE FRAME FLUSH STARTED
  


  INCREMENT     9 STARTS. ATTEMPT NUMBER  1, TIME INCREMENT  2.700E-02

 ***NOTE: Domain 1 of 1: 2 elements intersected event series material path

 ***NOTE: Domain 1 of 1: 11 elements intersected event series heat pathj

  NUMBER OF EQUATIONS =       369     NUMBER OF RHS =    1
  NUMBER OF FLOATING PT. OPERATIONS =  5.20E+05

  USING THE DIRECT SOLVER WITH   2 PROCESSORS

     CHECK POINT   START OF SOLVER    

     CHECK POINT  END OF SOLVER       

       ELAPSED USER TIME (SEC)      =   0.0000    
       ELAPSED SYSTEM TIME (SEC)    =   0.0000    
       ELAPSED TOTAL CPU TIME (SEC) =   0.0000    
       ELAPSED WALLCLOCK TIME (SEC) =          0

               CONVERGENCE CHECKS FOR EQUILIBRIUM ITERATION     1


 AVERAGE HEAT FLUX                   1.25       TIME AVG. HEAT FLUX   0.565    
 LARGEST RESIDUAL HEAT FLUX        -0.258       AT NODE         22   DOF 11
   INSTANCE: THERMAL-1                                                                       
 LARGEST INCREMENT OF TEMP.          3.69       AT NODE          2   DOF 11
   INSTANCE: THERMAL-1                                                                       
 LARGEST CORRECTION TO TEMP.         3.69       AT NODE          2   DOF 11
   INSTANCE: THERMAL-1                                                                       
          HEAT FLUX EQUILIBRIUM NOT ACHIEVED WITHIN TOLERANCE.

  NUMBER OF EQUATIONS =       369     NUMBER OF RHS =    1
  NUMBER OF FLOATING PT. OPERATIONS =  5.20E+05

  USING THE DIRECT SOLVER WITH   2 PROCESSORS

     CHECK POINT   START OF SOLVER    

     CHECK POINT  END OF SOLVER       

       ELAPSED USER TIME (SEC)      =   0.0000    
       ELAPSED SYSTEM TIME (SEC)    =   0.0000    
       ELAPSED TOTAL CPU TIME (SEC) =   0.0000    
       ELAPSED WALLCLOCK TIME (SEC) =          0

               CONVERGENCE CHECKS FOR EQUILIBRIUM ITERATION     2


 AVERAGE HEAT FLUX                   1.25       TIME AVG. HEAT FLUX   0.565    
 LARGEST RESIDUAL HEAT FLUX         1.576E-03   AT NODE         22   DOF 11
   INSTANCE: THERMAL-1                                                                       
 LARGEST INCREMENT OF TEMP.          3.66       AT NODE          2   DOF 11
   INSTANCE: THERMAL-1                                                                       
 LARGEST CORRECTION TO TEMP.       -4.113E-02   AT NODE         22   DOF 11
   INSTANCE: THERMAL-1                                                                       
 ESTIMATE OF TEMP.    CORRECTION    2.517E-04
 HEAT FLUX EQUILIB. ACCEPTED BASED ON SMALL RESIDUAL AND ESTIMATED CORRECTION

 MAXIMUM NON-PRESCRIBED INCREMENT IN TEMPERATURE IS    3.66    
          TIME INCREMENT MAY NOW INCREASE TO    4.050E-02

 ITERATION SUMMARY FOR THE INCREMENT:   2 TOTAL ITERATIONS, OF WHICH
   0 ARE SEVERE DISCONTINUITY ITERATIONS AND  2 ARE EQUILIBRIUM ITERATIONS.

 TIME INCREMENT COMPLETED  2.700E-02,  FRACTION OF STEP COMPLETED  7.400E-03
 STEP TIME COMPLETED       7.400E-02,  TOTAL TIME COMPLETED        7.400E-02
  
     ASYNCHRONOUS OUTPUT DATABASE FRAME FLUSH STARTED
  


  INCREMENT    10 STARTS. ATTEMPT NUMBER  1, TIME INCREMENT  4.050E-02

 ***NOTE: Domain 1 of 1: 2 elements intersected event series material path

 ***NOTE: Domain 1 of 1: 7 elements intersected event series heat pathj

  NUMBER OF EQUATIONS =       369     NUMBER OF RHS =    1
  NUMBER OF FLOATING PT. OPERATIONS =  5.20E+05

  USING THE DIRECT SOLVER WITH   2 PROCESSORS

     CHECK POINT   START OF SOLVER    

     CHECK POINT  END OF SOLVER       

       ELAPSED USER TIME (SEC)      =  0.10000    
       ELAPSED SYSTEM TIME (SEC)    =   0.0000    
       ELAPSED TOTAL CPU TIME (SEC) =  0.10000    
       ELAPSED WALLCLOCK TIME (SEC) =          0

               CONVERGENCE CHECKS FOR EQUILIBRIUM ITERATION     1


 AVERAGE HEAT FLUX                   1.26       TIME AVG. HEAT FLUX   0.634    
 LARGEST RESIDUAL HEAT FLUX        -0.198       AT NODE        137   DOF 11
   INSTANCE: THERMAL-1                                                                       
 LARGEST INCREMENT OF TEMP.          6.11       AT NODE         21   DOF 11
   INSTANCE: THERMAL-1                                                                       
 LARGEST CORRECTION TO TEMP.         6.11       AT NODE         21   DOF 11
   INSTANCE: THERMAL-1                                                                       
          HEAT FLUX EQUILIBRIUM NOT ACHIEVED WITHIN TOLERANCE.

  NUMBER OF EQUATIONS =       369     NUMBER OF RHS =    1
  NUMBER OF FLOATING PT. OPERATIONS =  5.20E+05

  USING THE DIRECT SOLVER WITH   2 PROCESSORS

     CHECK POINT   START OF SOLVER    

     CHECK POINT  END OF SOLVER       

       ELAPSED USER TIME (SEC)      =   0.0000    
       ELAPSED SYSTEM TIME (SEC)    =   0.0000    
       ELAPSED TOTAL CPU TIME (SEC) =   0.0000    
       ELAPSED WALLCLOCK TIME (SEC) =          0

               CONVERGENCE CHECKS FOR EQUILIBRIUM ITERATION     2


 AVERAGE HEAT FLUX                   1.26       TIME AVG. HEAT FLUX   0.634    
 LARGEST RESIDUAL HEAT FLUX        -9.212E-04   AT NODE        162   DOF 11
   INSTANCE: THERMAL-1                                                                       
 LARGEST INCREMENT OF TEMP.          6.08       AT NODE         21   DOF 11
   INSTANCE: THERMAL-1                                                                       
 LARGEST CORRECTION TO TEMP.       -3.838E-02   AT NODE         21   DOF 11
   INSTANCE: THERMAL-1                                                                       
          THE HEAT FLUX EQUILIBRIUM EQUATIONS HAVE CONVERGED

 MAXIMUM NON-PRESCRIBED INCREMENT IN TEMPERATURE IS    6.08    
          TIME INCREMENT MAY NOW INCREASE TO    6.075E-02

 ITERATION SUMMARY FOR THE INCREMENT:   2 TOTAL ITERATIONS, OF WHICH
   0 ARE SEVERE DISCONTINUITY ITERATIONS AND  2 ARE EQUILIBRIUM ITERATIONS.

 TIME INCREMENT COMPLETED  4.050E-02,  FRACTION OF STEP COMPLETED  1.145E-02
 STEP TIME COMPLETED       0.115    ,  TOTAL TIME COMPLETED        0.115    
  
     ASYNCHRONOUS OUTPUT DATABASE FRAME FLUSH STARTED
  


  INCREMENT    11 STARTS. ATTEMPT NUMBER  1, TIME INCREMENT  6.075E-02

 ***NOTE: Domain 1 of 1: 2 elements intersected event series material path

 ***NOTE: Domain 1 of 1: 14 elements intersected event series heat pathj

  NUMBER OF EQUATIONS =       369     NUMBER OF RHS =    1
  NUMBER OF FLOATING PT. OPERATIONS =  5.20E+05

  USING THE DIRECT SOLVER WITH   2 PROCESSORS

     CHECK POINT   START OF SOLVER    

     CHECK POINT  END OF SOLVER       

       ELAPSED USER TIME (SEC)      =  0.10000    
       ELAPSED SYSTEM TIME (SEC)    =   0.0000    
       ELAPSED TOTAL CPU TIME (SEC) =  0.10000    
       ELAPSED WALLCLOCK TIME (SEC) =          0

               CONVERGENCE CHECKS FOR EQUILIBRIUM ITERATION     1


 AVERAGE HEAT FLUX                   1.00       TIME AVG. HEAT FLUX   0.668    
 LARGEST RESIDUAL HEAT FLUX        -0.491       AT NODE        137   DOF 11
   INSTANCE: THERMAL-1                                                                       
 LARGEST INCREMENT OF TEMP.          11.4       AT NODE         21   DOF 11
   INSTANCE: THERMAL-1                                                                       
 LARGEST CORRECTION TO TEMP.         11.4       AT NODE         21   DOF 11
   INSTANCE: THERMAL-1                                                                       
          HEAT FLUX EQUILIBRIUM NOT ACHIEVED WITHIN TOLERANCE.

  NUMBER OF EQUATIONS =       369     NUMBER OF RHS =    1
  NUMBER OF FLOATING PT. OPERATIONS =  5.20E+05

  USING THE DIRECT SOLVER WITH   2 PROCESSORS

     CHECK POINT   START OF SOLVER    

     CHECK POINT  END OF SOLVER       

       ELAPSED USER TIME (SEC)      =   0.0000    
       ELAPSED SYSTEM TIME (SEC)    =   0.0000    
       ELAPSED TOTAL CPU TIME (SEC) =   0.0000    
       ELAPSED WALLCLOCK TIME (SEC) =          0

               CONVERGENCE CHECKS FOR EQUILIBRIUM ITERATION     2


 AVERAGE HEAT FLUX                  0.999       TIME AVG. HEAT FLUX   0.667    
 LARGEST RESIDUAL HEAT FLUX         3.746E-03   AT NODE        137   DOF 11
   INSTANCE: THERMAL-1                                                                       
 LARGEST INCREMENT OF TEMP.          11.3       AT NODE         21   DOF 11
   INSTANCE: THERMAL-1                                                                       
 LARGEST CORRECTION TO TEMP.       -0.113       AT NODE        142   DOF 11
   INSTANCE: THERMAL-1                                                                       
          HEAT FLUX EQUILIBRIUM NOT ACHIEVED WITHIN TOLERANCE.

  NUMBER OF EQUATIONS =       369     NUMBER OF RHS =    1
  NUMBER OF FLOATING PT. OPERATIONS =  5.20E+05

  USING THE DIRECT SOLVER WITH   2 PROCESSORS

     CHECK POINT   START OF SOLVER    

     CHECK POINT  END OF SOLVER       

       ELAPSED USER TIME (SEC)      =   0.0000    
       ELAPSED SYSTEM TIME (SEC)    =   0.0000    
       ELAPSED TOTAL CPU TIME (SEC) =   0.0000    
       ELAPSED WALLCLOCK TIME (SEC) =          0

               CONVERGENCE CHECKS FOR EQUILIBRIUM ITERATION     3


 AVERAGE HEAT FLUX                  0.999       TIME AVG. HEAT FLUX   0.667    
 LARGEST RESIDUAL HEAT FLUX        -3.667E-05   AT NODE        137   DOF 11
   INSTANCE: THERMAL-1                                                                       
 LARGEST INCREMENT OF TEMP.          11.3       AT NODE         21   DOF 11
   INSTANCE: THERMAL-1                                                                       
 LARGEST CORRECTION TO TEMP.        1.047E-03   AT NODE        137   DOF 11
   INSTANCE: THERMAL-1                                                                       
          THE HEAT FLUX EQUILIBRIUM EQUATIONS HAVE CONVERGED

 MAXIMUM NON-PRESCRIBED INCREMENT IN TEMPERATURE IS    11.3    
          TIME INCREMENT MAY NOW INCREASE TO    9.113E-02

 ITERATION SUMMARY FOR THE INCREMENT:   3 TOTAL ITERATIONS, OF WHICH
   0 ARE SEVERE DISCONTINUITY ITERATIONS AND  3 ARE EQUILIBRIUM ITERATIONS.

 TIME INCREMENT COMPLETED  6.075E-02,  FRACTION OF STEP COMPLETED  1.753E-02
 STEP TIME COMPLETED       0.175    ,  TOTAL TIME COMPLETED        0.175    
  
     ASYNCHRONOUS OUTPUT DATABASE FRAME FLUSH STARTED
  


  INCREMENT    12 STARTS. ATTEMPT NUMBER  1, TIME INCREMENT  9.113E-02

 ***NOTE: Domain 1 of 1: 2 elements intersected event series material path

 ***NOTE: Domain 1 of 1: 14 elements intersected event series heat pathj

  NUMBER OF EQUATIONS =       372     NUMBER OF RHS =    1
  NUMBER OF FLOATING PT. OPERATIONS =  4.97E+05

  USING THE DIRECT SOLVER WITH   2 PROCESSORS

     CHECK POINT   START OF SOLVER    

     CHECK POINT  END OF SOLVER       

       ELAPSED USER TIME (SEC)      =   0.0000    
       ELAPSED SYSTEM TIME (SEC)    =   0.0000    
       ELAPSED TOTAL CPU TIME (SEC) =   0.0000    
       ELAPSED WALLCLOCK TIME (SEC) =          0

               CONVERGENCE CHECKS FOR EQUILIBRIUM ITERATION     1


 AVERAGE HEAT FLUX                  0.906       TIME AVG. HEAT FLUX   0.687    
 LARGEST RESIDUAL HEAT FLUX         9.772E-02   AT NODE        161   DOF 11
   INSTANCE: THERMAL-1                                                                       
 LARGEST INCREMENT OF TEMP.         -5.07       AT NODE         23   DOF 11
   INSTANCE: THERMAL-1                                                                       
 LARGEST CORRECTION TO TEMP.        -5.07       AT NODE         23   DOF 11
   INSTANCE: THERMAL-1                                                                       
          HEAT FLUX EQUILIBRIUM NOT ACHIEVED WITHIN TOLERANCE.

  NUMBER OF EQUATIONS =       372     NUMBER OF RHS =    1
  NUMBER OF FLOATING PT. OPERATIONS =  4.97E+05

  USING THE DIRECT SOLVER WITH   2 PROCESSORS

     CHECK POINT   START OF SOLVER    

     CHECK POINT  END OF SOLVER       

       ELAPSED USER TIME (SEC)      =  0.10000    
       ELAPSED SYSTEM TIME (SEC)    =   0.0000    
       ELAPSED TOTAL CPU TIME (SEC) =  0.10000    
       ELAPSED WALLCLOCK TIME (SEC) =          0

               CONVERGENCE CHECKS FOR EQUILIBRIUM ITERATION     2


 AVERAGE HEAT FLUX                  0.905       TIME AVG. HEAT FLUX   0.687    
 LARGEST RESIDUAL HEAT FLUX         4.976E-04   AT NODE        137   DOF 11
   INSTANCE: THERMAL-1                                                                       
 LARGEST INCREMENT OF TEMP.         -5.07       AT NODE         23   DOF 11
   INSTANCE: THERMAL-1                                                                       
 LARGEST CORRECTION TO TEMP.       -1.906E-02   AT NODE        136   DOF 11
   INSTANCE: THERMAL-1                                                                       
          THE HEAT FLUX EQUILIBRIUM EQUATIONS HAVE CONVERGED

 MAXIMUM NON-PRESCRIBED INCREMENT IN TEMPERATURE IS   -5.07    
          TIME INCREMENT MAY NOW INCREASE TO    0.100    

 ITERATION SUMMARY FOR THE INCREMENT:   2 TOTAL ITERATIONS, OF WHICH
   0 ARE SEVERE DISCONTINUITY ITERATIONS AND  2 ARE EQUILIBRIUM ITERATIONS.

 TIME INCREMENT COMPLETED  9.113E-02,  FRACTION OF STEP COMPLETED  2.664E-02
 STEP TIME COMPLETED       0.266    ,  TOTAL TIME COMPLETED        0.266    
  
     ASYNCHRONOUS OUTPUT DATABASE FRAME FLUSH STARTED
  


  INCREMENT    13 STARTS. ATTEMPT NUMBER  1, TIME INCREMENT  0.100    

 ***NOTE: Domain 1 of 1: 4 elements intersected event series material path

 ***NOTE: Domain 1 of 1: 14 elements intersected event series heat pathj

  NUMBER OF EQUATIONS =       375     NUMBER OF RHS =    1
  NUMBER OF FLOATING PT. OPERATIONS =  4.82E+05

  USING THE DIRECT SOLVER WITH   2 PROCESSORS

     CHECK POINT   START OF SOLVER    

     CHECK POINT  END OF SOLVER       

       ELAPSED USER TIME (SEC)      =  0.10000    
       ELAPSED SYSTEM TIME (SEC)    =   0.0000    
       ELAPSED TOTAL CPU TIME (SEC) =  0.10000    
       ELAPSED WALLCLOCK TIME (SEC) =          0

               CONVERGENCE CHECKS FOR EQUILIBRIUM ITERATION     1


 AVERAGE HEAT FLUX                  0.819       TIME AVG. HEAT FLUX   0.697    
 LARGEST RESIDUAL HEAT FLUX        -0.562       AT NODE        136   DOF 11
   INSTANCE: THERMAL-1                                                                       
 LARGEST INCREMENT OF TEMP.          9.84       AT NODE         20   DOF 11
   INSTANCE: THERMAL-1                                                                       
 LARGEST CORRECTION TO TEMP.         9.84       AT NODE         20   DOF 11
   INSTANCE: THERMAL-1                                                                       
          HEAT FLUX EQUILIBRIUM NOT ACHIEVED WITHIN TOLERANCE.

  NUMBER OF EQUATIONS =       375     NUMBER OF RHS =    1
  NUMBER OF FLOATING PT. OPERATIONS =  4.82E+05

  USING THE DIRECT SOLVER WITH   2 PROCESSORS

     CHECK POINT   START OF SOLVER    

     CHECK POINT  END OF SOLVER       

       ELAPSED USER TIME (SEC)      =   0.0000    
       ELAPSED SYSTEM TIME (SEC)    =   0.0000    
       ELAPSED TOTAL CPU TIME (SEC) =   0.0000    
       ELAPSED WALLCLOCK TIME (SEC) =          0

               CONVERGENCE CHECKS FOR EQUILIBRIUM ITERATION     2


 AVERAGE HEAT FLUX                  0.818       TIME AVG. HEAT FLUX   0.697    
 LARGEST RESIDUAL HEAT FLUX         3.476E-03   AT NODE        136   DOF 11
   INSTANCE: THERMAL-1                                                                       
 LARGEST INCREMENT OF TEMP.          9.76       AT NODE        136   DOF 11
   INSTANCE: THERMAL-1                                                                       
 LARGEST CORRECTION TO TEMP.       -7.805E-02   AT NODE         20   DOF 11
   INSTANCE: THERMAL-1                                                                       
          THE HEAT FLUX EQUILIBRIUM EQUATIONS HAVE CONVERGED

 MAXIMUM NON-PRESCRIBED INCREMENT IN TEMPERATURE IS    9.76    

 ITERATION SUMMARY FOR THE INCREMENT:   2 TOTAL ITERATIONS, OF WHICH
   0 ARE SEVERE DISCONTINUITY ITERATIONS AND  2 ARE EQUILIBRIUM ITERATIONS.

 TIME INCREMENT COMPLETED  0.100    ,  FRACTION OF STEP COMPLETED  3.664E-02
 STEP TIME COMPLETED       0.366    ,  TOTAL TIME COMPLETED        0.366    
  
     ASYNCHRONOUS OUTPUT DATABASE FRAME FLUSH STARTED
  


  INCREMENT    14 STARTS. ATTEMPT NUMBER  1, TIME INCREMENT  0.100    

 ***NOTE: Domain 1 of 1: 2 elements intersected event series material path

 ***NOTE: Domain 1 of 1: 14 elements intersected event series heat pathj

  NUMBER OF EQUATIONS =       375     NUMBER OF RHS =    1
  NUMBER OF FLOATING PT. OPERATIONS =  4.82E+05

  USING THE DIRECT SOLVER WITH   2 PROCESSORS

     CHECK POINT   START OF SOLVER    

     CHECK POINT  END OF SOLVER       

       ELAPSED USER TIME (SEC)      =   0.0000    
       ELAPSED SYSTEM TIME (SEC)    =   0.0000    
       ELAPSED TOTAL CPU TIME (SEC) =   0.0000    
       ELAPSED WALLCLOCK TIME (SEC) =          0

               CONVERGENCE CHECKS FOR EQUILIBRIUM ITERATION     1


 AVERAGE HEAT FLUX                  0.791       TIME AVG. HEAT FLUX   0.704    
 LARGEST RESIDUAL HEAT FLUX        -0.304       AT NODE        135   DOF 11
   INSTANCE: THERMAL-1                                                                       
 LARGEST INCREMENT OF TEMP.          11.5       AT NODE         19   DOF 11
   INSTANCE: THERMAL-1                                                                       
 LARGEST CORRECTION TO TEMP.         11.5       AT NODE         19   DOF 11
   INSTANCE: THERMAL-1                                                                       
          HEAT FLUX EQUILIBRIUM NOT ACHIEVED WITHIN TOLERANCE.

  NUMBER OF EQUATIONS =       375     NUMBER OF RHS =    1
  NUMBER OF FLOATING PT. OPERATIONS =  4.82E+05

  USING THE DIRECT SOLVER WITH   2 PROCESSORS

     CHECK POINT   START OF SOLVER    

     CHECK POINT  END OF SOLVER       

       ELAPSED USER TIME (SEC)      =  0.10000    
       ELAPSED SYSTEM TIME (SEC)    =   0.0000    
       ELAPSED TOTAL CPU TIME (SEC) =  0.10000    
       ELAPSED WALLCLOCK TIME (SEC) =          0

               CONVERGENCE CHECKS FOR EQUILIBRIUM ITERATION     2


 AVERAGE HEAT FLUX                  0.789       TIME AVG. HEAT FLUX   0.704    
 LARGEST RESIDUAL HEAT FLUX         9.181E-04   AT NODE        136   DOF 11
   INSTANCE: THERMAL-1                                                                       
 LARGEST INCREMENT OF TEMP.          11.5       AT NODE         19   DOF 11
   INSTANCE: THERMAL-1                                                                       
 LARGEST CORRECTION TO TEMP.       -6.181E-02   AT NODE         19   DOF 11
   INSTANCE: THERMAL-1                                                                       
          THE HEAT FLUX EQUILIBRIUM EQUATIONS HAVE CONVERGED

 MAXIMUM NON-PRESCRIBED INCREMENT IN TEMPERATURE IS    11.5    

 ITERATION SUMMARY FOR THE INCREMENT:   2 TOTAL ITERATIONS, OF WHICH
   0 ARE SEVERE DISCONTINUITY ITERATIONS AND  2 ARE EQUILIBRIUM ITERATIONS.

 TIME INCREMENT COMPLETED  0.100    ,  FRACTION OF STEP COMPLETED  4.664E-02
 STEP TIME COMPLETED       0.466    ,  TOTAL TIME COMPLETED        0.466    
  
     ASYNCHRONOUS OUTPUT DATABASE FRAME FLUSH STARTED
  


  INCREMENT    15 STARTS. ATTEMPT NUMBER  1, TIME INCREMENT  0.100    

 ***NOTE: Domain 1 of 1: 4 elements intersected event series material path

 ***NOTE: Domain 1 of 1: 14 elements intersected event series heat pathj

  NUMBER OF EQUATIONS =       378     NUMBER OF RHS =    1
  NUMBER OF FLOATING PT. OPERATIONS =  5.25E+05

  USING THE DIRECT SOLVER WITH   2 PROCESSORS

     CHECK POINT   START OF SOLVER    

     CHECK POINT  END OF SOLVER       

       ELAPSED USER TIME (SEC)      =   0.0000    
       ELAPSED SYSTEM TIME (SEC)    =   0.0000    
       ELAPSED TOTAL CPU TIME (SEC) =   0.0000    
       ELAPSED WALLCLOCK TIME (SEC) =          0

               CONVERGENCE CHECKS FOR EQUILIBRIUM ITERATION     1


 AVERAGE HEAT FLUX                  0.679       TIME AVG. HEAT FLUX   0.702    
 LARGEST RESIDUAL HEAT FLUX        -0.518       AT NODE        135   DOF 11
   INSTANCE: THERMAL-1                                                                       
 LARGEST INCREMENT OF TEMP.          7.31       AT NODE        135   DOF 11
   INSTANCE: THERMAL-1                                                                       
 LARGEST CORRECTION TO TEMP.         7.31       AT NODE        135   DOF 11
   INSTANCE: THERMAL-1                                                                       
          HEAT FLUX EQUILIBRIUM NOT ACHIEVED WITHIN TOLERANCE.

  NUMBER OF EQUATIONS =       378     NUMBER OF RHS =    1
  NUMBER OF FLOATING PT. OPERATIONS =  5.25E+05

  USING THE DIRECT SOLVER WITH   2 PROCESSORS

     CHECK POINT   START OF SOLVER    

     CHECK POINT  END OF SOLVER       

       ELAPSED USER TIME (SEC)      =  0.10000    
       ELAPSED SYSTEM TIME (SEC)    =   0.0000    
       ELAPSED TOTAL CPU TIME (SEC) =  0.10000    
       ELAPSED WALLCLOCK TIME (SEC) =          0

               CONVERGENCE CHECKS FOR EQUILIBRIUM ITERATION     2


 AVERAGE HEAT FLUX                  0.681       TIME AVG. HEAT FLUX   0.702    
 LARGEST RESIDUAL HEAT FLUX         3.415E-03   AT NODE        135   DOF 11
   INSTANCE: THERMAL-1                                                                       
 LARGEST INCREMENT OF TEMP.          7.25       AT NODE        135   DOF 11
   INSTANCE: THERMAL-1                                                                       
 LARGEST CORRECTION TO TEMP.       -7.884E-02   AT NODE         19   DOF 11
   INSTANCE: THERMAL-1                                                                       
 ESTIMATE OF TEMP.    CORRECTION    5.200E-04
 HEAT FLUX EQUILIB. ACCEPTED BASED ON SMALL RESIDUAL AND ESTIMATED CORRECTION

 MAXIMUM NON-PRESCRIBED INCREMENT IN TEMPERATURE IS    7.25    

 ITERATION SUMMARY FOR THE INCREMENT:   2 TOTAL ITERATIONS, OF WHICH
   0 ARE SEVERE DISCONTINUITY ITERATIONS AND  2 ARE EQUILIBRIUM ITERATIONS.

 TIME INCREMENT COMPLETED  0.100    ,  FRACTION OF STEP COMPLETED  5.664E-02
 STEP TIME COMPLETED       0.566    ,  TOTAL TIME COMPLETED        0.566    
  
     ASYNCHRONOUS OUTPUT DATABASE FRAME FLUSH STARTED
  


  INCREMENT    16 STARTS. ATTEMPT NUMBER  1, TIME INCREMENT  0.100    

 ***NOTE: Domain 1 of 1: 2 elements intersected event series material path

 ***NOTE: Domain 1 of 1: 14 elements intersected event series heat pathj

  NUMBER OF EQUATIONS =       378     NUMBER OF RHS =    1
  NUMBER OF FLOATING PT. OPERATIONS =  5.25E+05

  USING THE DIRECT SOLVER WITH   2 PROCESSORS

     CHECK POINT   START OF SOLVER    

     CHECK POINT  END OF SOLVER       

       ELAPSED USER TIME (SEC)      =   0.0000    
       ELAPSED SYSTEM TIME (SEC)    =  0.10000    
       ELAPSED TOTAL CPU TIME (SEC) =  0.10000    
       ELAPSED WALLCLOCK TIME (SEC) =          0

               CONVERGENCE CHECKS FOR EQUILIBRIUM ITERATION     1


 AVERAGE HEAT FLUX                  0.618       TIME AVG. HEAT FLUX   0.697    
 LARGEST RESIDUAL HEAT FLUX        -0.675       AT NODE        134   DOF 11
   INSTANCE: THERMAL-1                                                                       
 LARGEST INCREMENT OF TEMP.          16.0       AT NODE         18   DOF 11
   INSTANCE: THERMAL-1                                                                       
 LARGEST CORRECTION TO TEMP.         16.0       AT NODE         18   DOF 11
   INSTANCE: THERMAL-1                                                                       
          HEAT FLUX EQUILIBRIUM NOT ACHIEVED WITHIN TOLERANCE.

  NUMBER OF EQUATIONS =       378     NUMBER OF RHS =    1
  NUMBER OF FLOATING PT. OPERATIONS =  5.25E+05

  USING THE DIRECT SOLVER WITH   2 PROCESSORS

     CHECK POINT   START OF SOLVER    

     CHECK POINT  END OF SOLVER       

       ELAPSED USER TIME (SEC)      =   0.0000    
       ELAPSED SYSTEM TIME (SEC)    =   0.0000    
       ELAPSED TOTAL CPU TIME (SEC) =   0.0000    
       ELAPSED WALLCLOCK TIME (SEC) =          0

               CONVERGENCE CHECKS FOR EQUILIBRIUM ITERATION     2


 AVERAGE HEAT FLUX                  0.617       TIME AVG. HEAT FLUX   0.697    
 LARGEST RESIDUAL HEAT FLUX        -6.027E-03   AT NODE        159   DOF 11
   INSTANCE: THERMAL-1                                                                       
 LARGEST INCREMENT OF TEMP.          15.8       AT NODE         18   DOF 11
   INSTANCE: THERMAL-1                                                                       
 LARGEST CORRECTION TO TEMP.       -0.162       AT NODE         18   DOF 11
   INSTANCE: THERMAL-1                                                                       
          HEAT FLUX EQUILIBRIUM NOT ACHIEVED WITHIN TOLERANCE.

  NUMBER OF EQUATIONS =       378     NUMBER OF RHS =    1
  NUMBER OF FLOATING PT. OPERATIONS =  5.25E+05

  USING THE DIRECT SOLVER WITH   2 PROCESSORS

     CHECK POINT   START OF SOLVER    

     CHECK POINT  END OF SOLVER       

       ELAPSED USER TIME (SEC)      =   0.0000    
       ELAPSED SYSTEM TIME (SEC)    =   0.0000    
       ELAPSED TOTAL CPU TIME (SEC) =   0.0000    
       ELAPSED WALLCLOCK TIME (SEC) =          0

               CONVERGENCE CHECKS FOR EQUILIBRIUM ITERATION     3


 AVERAGE HEAT FLUX                  0.617       TIME AVG. HEAT FLUX   0.697    
 LARGEST RESIDUAL HEAT FLUX         5.132E-05   AT NODE        159   DOF 11
   INSTANCE: THERMAL-1                                                                       
 LARGEST INCREMENT OF TEMP.          15.8       AT NODE         18   DOF 11
   INSTANCE: THERMAL-1                                                                       
 LARGEST CORRECTION TO TEMP.        1.700E-03   AT NODE         18   DOF 11
   INSTANCE: THERMAL-1                                                                       
          THE HEAT FLUX EQUILIBRIUM EQUATIONS HAVE CONVERGED

 MAXIMUM NON-PRESCRIBED INCREMENT IN TEMPERATURE IS    15.8    

 ITERATION SUMMARY FOR THE INCREMENT:   3 TOTAL ITERATIONS, OF WHICH
   0 ARE SEVERE DISCONTINUITY ITERATIONS AND  3 ARE EQUILIBRIUM ITERATIONS.

 TIME INCREMENT COMPLETED  0.100    ,  FRACTION OF STEP COMPLETED  6.664E-02
 STEP TIME COMPLETED       0.666    ,  TOTAL TIME COMPLETED        0.666    
  
     ASYNCHRONOUS OUTPUT DATABASE FRAME FLUSH STARTED
  


  INCREMENT    17 STARTS. ATTEMPT NUMBER  1, TIME INCREMENT  0.100    

 ***NOTE: Domain 1 of 1: 2 elements intersected event series material path

 ***NOTE: Domain 1 of 1: 14 elements intersected event series heat pathj

  NUMBER OF EQUATIONS =       381     NUMBER OF RHS =    1
  NUMBER OF FLOATING PT. OPERATIONS =  5.14E+05

  USING THE DIRECT SOLVER WITH   2 PROCESSORS

     CHECK POINT   START OF SOLVER    

     CHECK POINT  END OF SOLVER       

       ELAPSED USER TIME (SEC)      =   0.0000    
       ELAPSED SYSTEM TIME (SEC)    =   0.0000    
       ELAPSED TOTAL CPU TIME (SEC) =   0.0000    
       ELAPSED WALLCLOCK TIME (SEC) =          0

               CONVERGENCE CHECKS FOR EQUILIBRIUM ITERATION     1


 AVERAGE HEAT FLUX                  0.591       TIME AVG. HEAT FLUX   0.691    
 LARGEST RESIDUAL HEAT FLUX        -0.209       AT NODE        134   DOF 11
   INSTANCE: THERMAL-1                                                                       
 LARGEST INCREMENT OF TEMP.          5.39       AT NODE        159   DOF 11
   INSTANCE: THERMAL-1                                                                       
 LARGEST CORRECTION TO TEMP.         5.39       AT NODE        159   DOF 11
   INSTANCE: THERMAL-1                                                                       
          HEAT FLUX EQUILIBRIUM NOT ACHIEVED WITHIN TOLERANCE.

  NUMBER OF EQUATIONS =       381     NUMBER OF RHS =    1
  NUMBER OF FLOATING PT. OPERATIONS =  5.14E+05

  USING THE DIRECT SOLVER WITH   2 PROCESSORS

     CHECK POINT   START OF SOLVER    

     CHECK POINT  END OF SOLVER       

       ELAPSED USER TIME (SEC)      =   0.0000    
       ELAPSED SYSTEM TIME (SEC)    =   0.0000    
       ELAPSED TOTAL CPU TIME (SEC) =   0.0000    
       ELAPSED WALLCLOCK TIME (SEC) =          0

               CONVERGENCE CHECKS FOR EQUILIBRIUM ITERATION     2


 AVERAGE HEAT FLUX                  0.590       TIME AVG. HEAT FLUX   0.691    
 LARGEST RESIDUAL HEAT FLUX         1.288E-03   AT NODE        134   DOF 11
   INSTANCE: THERMAL-1                                                                       
 LARGEST INCREMENT OF TEMP.          5.38       AT NODE        159   DOF 11
   INSTANCE: THERMAL-1                                                                       
 LARGEST CORRECTION TO TEMP.       -2.728E-02   AT NODE        139   DOF 11
   INSTANCE: THERMAL-1                                                                       
          THE HEAT FLUX EQUILIBRIUM EQUATIONS HAVE CONVERGED

 MAXIMUM NON-PRESCRIBED INCREMENT IN TEMPERATURE IS    5.38    

 ITERATION SUMMARY FOR THE INCREMENT:   2 TOTAL ITERATIONS, OF WHICH
   0 ARE SEVERE DISCONTINUITY ITERATIONS AND  2 ARE EQUILIBRIUM ITERATIONS.

 TIME INCREMENT COMPLETED  0.100    ,  FRACTION OF STEP COMPLETED  7.664E-02
 STEP TIME COMPLETED       0.766    ,  TOTAL TIME COMPLETED        0.766    
  
     ASYNCHRONOUS OUTPUT DATABASE FRAME FLUSH STARTED
  


  INCREMENT    18 STARTS. ATTEMPT NUMBER  1, TIME INCREMENT  0.100    

 ***NOTE: Domain 1 of 1: 4 elements intersected event series material path

 ***NOTE: Domain 1 of 1: 14 elements intersected event series heat pathj

  NUMBER OF EQUATIONS =       384     NUMBER OF RHS =    1
  NUMBER OF FLOATING PT. OPERATIONS =  5.36E+05

  USING THE DIRECT SOLVER WITH   2 PROCESSORS

     CHECK POINT   START OF SOLVER    

     CHECK POINT  END OF SOLVER       

       ELAPSED USER TIME (SEC)      =  0.10000    
       ELAPSED SYSTEM TIME (SEC)    =   0.0000    
       ELAPSED TOTAL CPU TIME (SEC) =  0.10000    
       ELAPSED WALLCLOCK TIME (SEC) =          0

               CONVERGENCE CHECKS FOR EQUILIBRIUM ITERATION     1


 AVERAGE HEAT FLUX                  0.543       TIME AVG. HEAT FLUX   0.682    
 LARGEST RESIDUAL HEAT FLUX        -0.572       AT NODE        133   DOF 11
   INSTANCE: THERMAL-1                                                                       
 LARGEST INCREMENT OF TEMP.          10.2       AT NODE         17   DOF 11
   INSTANCE: THERMAL-1                                                                       
 LARGEST CORRECTION TO TEMP.         10.2       AT NODE         17   DOF 11
   INSTANCE: THERMAL-1                                                                       
          HEAT FLUX EQUILIBRIUM NOT ACHIEVED WITHIN TOLERANCE.

  NUMBER OF EQUATIONS =       384     NUMBER OF RHS =    1
  NUMBER OF FLOATING PT. OPERATIONS =  5.36E+05

  USING THE DIRECT SOLVER WITH   2 PROCESSORS

     CHECK POINT   START OF SOLVER    

     CHECK POINT  END OF SOLVER       

       ELAPSED USER TIME (SEC)      =   0.0000    
       ELAPSED SYSTEM TIME (SEC)    =   0.0000    
       ELAPSED TOTAL CPU TIME (SEC) =   0.0000    
       ELAPSED WALLCLOCK TIME (SEC) =          0

               CONVERGENCE CHECKS FOR EQUILIBRIUM ITERATION     2


 AVERAGE HEAT FLUX                  0.542       TIME AVG. HEAT FLUX   0.682    
 LARGEST RESIDUAL HEAT FLUX         3.501E-03   AT NODE        133   DOF 11
   INSTANCE: THERMAL-1                                                                       
 LARGEST INCREMENT OF TEMP.          10.1       AT NODE         17   DOF 11
   INSTANCE: THERMAL-1                                                                       
 LARGEST CORRECTION TO TEMP.       -8.021E-02   AT NODE         17   DOF 11
   INSTANCE: THERMAL-1                                                                       
          HEAT FLUX EQUILIBRIUM NOT ACHIEVED WITHIN TOLERANCE.

  NUMBER OF EQUATIONS =       384     NUMBER OF RHS =    1
  NUMBER OF FLOATING PT. OPERATIONS =  5.36E+05

  USING THE DIRECT SOLVER WITH   2 PROCESSORS

     CHECK POINT   START OF SOLVER    

     CHECK POINT  END OF SOLVER       

       ELAPSED USER TIME (SEC)      =  0.10000    
       ELAPSED SYSTEM TIME (SEC)    =   0.0000    
       ELAPSED TOTAL CPU TIME (SEC) =  0.10000    
       ELAPSED WALLCLOCK TIME (SEC) =          0

               CONVERGENCE CHECKS FOR EQUILIBRIUM ITERATION     3


 AVERAGE HEAT FLUX                  0.542       TIME AVG. HEAT FLUX   0.682    
 LARGEST RESIDUAL HEAT FLUX        -2.026E-05   AT NODE        133   DOF 11
   INSTANCE: THERMAL-1                                                                       
 LARGEST INCREMENT OF TEMP.          10.1       AT NODE         17   DOF 11
   INSTANCE: THERMAL-1                                                                       
 LARGEST CORRECTION TO TEMP.        5.773E-04   AT NODE         17   DOF 11
   INSTANCE: THERMAL-1                                                                       
          THE HEAT FLUX EQUILIBRIUM EQUATIONS HAVE CONVERGED

 MAXIMUM NON-PRESCRIBED INCREMENT IN TEMPERATURE IS    10.1    

 ITERATION SUMMARY FOR THE INCREMENT:   3 TOTAL ITERATIONS, OF WHICH
   0 ARE SEVERE DISCONTINUITY ITERATIONS AND  3 ARE EQUILIBRIUM ITERATIONS.

 TIME INCREMENT COMPLETED  0.100    ,  FRACTION OF STEP COMPLETED  8.664E-02
 STEP TIME COMPLETED       0.866    ,  TOTAL TIME COMPLETED        0.866    
  
     ASYNCHRONOUS OUTPUT DATABASE FRAME FLUSH STARTED
  


  INCREMENT    19 STARTS. ATTEMPT NUMBER  1, TIME INCREMENT  0.100    

 ***NOTE: Domain 1 of 1: 2 elements intersected event series material path

 ***NOTE: Domain 1 of 1: 14 elements intersected event series heat pathj

  NUMBER OF EQUATIONS =       384     NUMBER OF RHS =    1
  NUMBER OF FLOATING PT. OPERATIONS =  5.36E+05

  USING THE DIRECT SOLVER WITH   2 PROCESSORS

     CHECK POINT   START OF SOLVER    

     CHECK POINT  END OF SOLVER       

       ELAPSED USER TIME (SEC)      =   0.0000    
       ELAPSED SYSTEM TIME (SEC)    =   0.0000    
       ELAPSED TOTAL CPU TIME (SEC) =   0.0000    
       ELAPSED WALLCLOCK TIME (SEC) =          0

               CONVERGENCE CHECKS FOR EQUILIBRIUM ITERATION     1


 AVERAGE HEAT FLUX                  0.556       TIME AVG. HEAT FLUX   0.676    
 LARGEST RESIDUAL HEAT FLUX        -0.305       AT NODE         36   DOF 11
   INSTANCE: THERMAL-1                                                                       
 LARGEST INCREMENT OF TEMP.          11.5       AT NODE         35   DOF 11
   INSTANCE: THERMAL-1                                                                       
 LARGEST CORRECTION TO TEMP.         11.5       AT NODE         35   DOF 11
   INSTANCE: THERMAL-1                                                                       
          HEAT FLUX EQUILIBRIUM NOT ACHIEVED WITHIN TOLERANCE.

  NUMBER OF EQUATIONS =       384     NUMBER OF RHS =    1
  NUMBER OF FLOATING PT. OPERATIONS =  5.36E+05

  USING THE DIRECT SOLVER WITH   2 PROCESSORS

     CHECK POINT   START OF SOLVER    

     CHECK POINT  END OF SOLVER       

       ELAPSED USER TIME (SEC)      =  0.10000    
       ELAPSED SYSTEM TIME (SEC)    =   0.0000    
       ELAPSED TOTAL CPU TIME (SEC) =  0.10000    
       ELAPSED WALLCLOCK TIME (SEC) =          0

               CONVERGENCE CHECKS FOR EQUILIBRIUM ITERATION     2


 AVERAGE HEAT FLUX                  0.555       TIME AVG. HEAT FLUX   0.676    
 LARGEST RESIDUAL HEAT FLUX         9.289E-04   AT NODE        133   DOF 11
   INSTANCE: THERMAL-1                                                                       
 LARGEST INCREMENT OF TEMP.          11.5       AT NODE         35   DOF 11
   INSTANCE: THERMAL-1                                                                       
 LARGEST CORRECTION TO TEMP.       -6.193E-02   AT NODE         35   DOF 11
   INSTANCE: THERMAL-1                                                                       
          THE HEAT FLUX EQUILIBRIUM EQUATIONS HAVE CONVERGED

 MAXIMUM NON-PRESCRIBED INCREMENT IN TEMPERATURE IS    11.5    

 ITERATION SUMMARY FOR THE INCREMENT:   2 TOTAL ITERATIONS, OF WHICH
   0 ARE SEVERE DISCONTINUITY ITERATIONS AND  2 ARE EQUILIBRIUM ITERATIONS.

 TIME INCREMENT COMPLETED  0.100    ,  FRACTION OF STEP COMPLETED  9.664E-02
 STEP TIME COMPLETED       0.966    ,  TOTAL TIME COMPLETED        0.966    
  
     ASYNCHRONOUS OUTPUT DATABASE FRAME FLUSH STARTED
  


  INCREMENT    20 STARTS. ATTEMPT NUMBER  1, TIME INCREMENT  0.100    

 ***NOTE: Domain 1 of 1: 4 elements intersected event series material path

 ***NOTE: Domain 1 of 1: 23 elements intersected event series heat pathj

  NUMBER OF EQUATIONS =       388     NUMBER OF RHS =    1
  NUMBER OF FLOATING PT. OPERATIONS =  5.73E+05

  USING THE DIRECT SOLVER WITH   2 PROCESSORS

     CHECK POINT   START OF SOLVER    

     CHECK POINT  END OF SOLVER       

       ELAPSED USER TIME (SEC)      =  0.10000    
       ELAPSED SYSTEM TIME (SEC)    =   0.0000    
       ELAPSED TOTAL CPU TIME (SEC) =  0.10000    
       ELAPSED WALLCLOCK TIME (SEC) =          0

               CONVERGENCE CHECKS FOR EQUILIBRIUM ITERATION     1


 AVERAGE HEAT FLUX                  0.456       TIME AVG. HEAT FLUX   0.665    
 LARGEST RESIDUAL HEAT FLUX        -0.338       AT NODE         24   DOF 11
   INSTANCE: THERMAL-1                                                                       
 LARGEST INCREMENT OF TEMP.          12.0       AT NODE         24   DOF 11
   INSTANCE: THERMAL-1                                                                       
 LARGEST CORRECTION TO TEMP.         12.0       AT NODE         24   DOF 11
   INSTANCE: THERMAL-1                                                                       
          HEAT FLUX EQUILIBRIUM NOT ACHIEVED WITHIN TOLERANCE.

  NUMBER OF EQUATIONS =       388     NUMBER OF RHS =    1
  NUMBER OF FLOATING PT. OPERATIONS =  5.73E+05

  USING THE DIRECT SOLVER WITH   2 PROCESSORS

     CHECK POINT   START OF SOLVER    

     CHECK POINT  END OF SOLVER       

       ELAPSED USER TIME (SEC)      =   0.0000    
       ELAPSED SYSTEM TIME (SEC)    =   0.0000    
       ELAPSED TOTAL CPU TIME (SEC) =   0.0000    
       ELAPSED WALLCLOCK TIME (SEC) =          0

               CONVERGENCE CHECKS FOR EQUILIBRIUM ITERATION     2


 AVERAGE HEAT FLUX                  0.455       TIME AVG. HEAT FLUX   0.665    
 LARGEST RESIDUAL HEAT FLUX         2.317E-03   AT NODE         24   DOF 11
   INSTANCE: THERMAL-1                                                                       
 LARGEST INCREMENT OF TEMP.          12.0       AT NODE         24   DOF 11
   INSTANCE: THERMAL-1                                                                       
 LARGEST CORRECTION TO TEMP.       -8.954E-02   AT NODE         24   DOF 11
   INSTANCE: THERMAL-1                                                                       
          THE HEAT FLUX EQUILIBRIUM EQUATIONS HAVE CONVERGED

 MAXIMUM NON-PRESCRIBED INCREMENT IN TEMPERATURE IS    12.0    

 ITERATION SUMMARY FOR THE INCREMENT:   2 TOTAL ITERATIONS, OF WHICH
   0 ARE SEVERE DISCONTINUITY ITERATIONS AND  2 ARE EQUILIBRIUM ITERATIONS.

 TIME INCREMENT COMPLETED  0.100    ,  FRACTION OF STEP COMPLETED  0.107    
 STEP TIME COMPLETED        1.07    ,  TOTAL TIME COMPLETED         1.07    
  
     ASYNCHRONOUS OUTPUT DATABASE FRAME FLUSH STARTED
  


  INCREMENT    21 STARTS. ATTEMPT NUMBER  1, TIME INCREMENT  0.100    

 ***NOTE: Domain 1 of 1: 2 elements intersected event series material path

 ***NOTE: Domain 1 of 1: 16 elements intersected event series heat pathj

  NUMBER OF EQUATIONS =       388     NUMBER OF RHS =    1
  NUMBER OF FLOATING PT. OPERATIONS =  5.73E+05

  USING THE DIRECT SOLVER WITH   2 PROCESSORS

     CHECK POINT   START OF SOLVER    

     CHECK POINT  END OF SOLVER       

       ELAPSED USER TIME (SEC)      =   0.0000    
       ELAPSED SYSTEM TIME (SEC)    =   0.0000    
       ELAPSED TOTAL CPU TIME (SEC) =   0.0000    
       ELAPSED WALLCLOCK TIME (SEC) =          0

               CONVERGENCE CHECKS FOR EQUILIBRIUM ITERATION     1


 AVERAGE HEAT FLUX                  0.530       TIME AVG. HEAT FLUX   0.658    
 LARGEST RESIDUAL HEAT FLUX        -0.640       AT NODE        147   DOF 11
   INSTANCE: THERMAL-1                                                                       
 LARGEST INCREMENT OF TEMP.          15.8       AT NODE        147   DOF 11
   INSTANCE: THERMAL-1                                                                       
 LARGEST CORRECTION TO TEMP.         15.8       AT NODE        147   DOF 11
   INSTANCE: THERMAL-1                                                                       
          HEAT FLUX EQUILIBRIUM NOT ACHIEVED WITHIN TOLERANCE.

  NUMBER OF EQUATIONS =       388     NUMBER OF RHS =    1
  NUMBER OF FLOATING PT. OPERATIONS =  5.73E+05

  USING THE DIRECT SOLVER WITH   2 PROCESSORS

     CHECK POINT   START OF SOLVER    

     CHECK POINT  END OF SOLVER       

       ELAPSED USER TIME (SEC)      =  0.10000    
       ELAPSED SYSTEM TIME (SEC)    =   0.0000    
       ELAPSED TOTAL CPU TIME (SEC) =  0.10000    
       ELAPSED WALLCLOCK TIME (SEC) =          0

               CONVERGENCE CHECKS FOR EQUILIBRIUM ITERATION     2


 AVERAGE HEAT FLUX                  0.529       TIME AVG. HEAT FLUX   0.658    
 LARGEST RESIDUAL HEAT FLUX         5.735E-03   AT NODE        147   DOF 11
   INSTANCE: THERMAL-1                                                                       
 LARGEST INCREMENT OF TEMP.          15.6       AT NODE        147   DOF 11
   INSTANCE: THERMAL-1                                                                       
 LARGEST CORRECTION TO TEMP.       -0.168       AT NODE        147   DOF 11
   INSTANCE: THERMAL-1                                                                       
          HEAT FLUX EQUILIBRIUM NOT ACHIEVED WITHIN TOLERANCE.

  NUMBER OF EQUATIONS =       388     NUMBER OF RHS =    1
  NUMBER OF FLOATING PT. OPERATIONS =  5.73E+05

  USING THE DIRECT SOLVER WITH   2 PROCESSORS

     CHECK POINT   START OF SOLVER    

     CHECK POINT  END OF SOLVER       

       ELAPSED USER TIME (SEC)      =   0.0000    
       ELAPSED SYSTEM TIME (SEC)    =   0.0000    
       ELAPSED TOTAL CPU TIME (SEC) =   0.0000    
       ELAPSED WALLCLOCK TIME (SEC) =          0

               CONVERGENCE CHECKS FOR EQUILIBRIUM ITERATION     3


 AVERAGE HEAT FLUX                  0.529       TIME AVG. HEAT FLUX   0.658    
 LARGEST RESIDUAL HEAT FLUX        -5.211E-05   AT NODE        147   DOF 11
   INSTANCE: THERMAL-1                                                                       
 LARGEST INCREMENT OF TEMP.          15.6       AT NODE        147   DOF 11
   INSTANCE: THERMAL-1                                                                       
 LARGEST CORRECTION TO TEMP.        1.561E-03   AT NODE        147   DOF 11
   INSTANCE: THERMAL-1                                                                       
          THE HEAT FLUX EQUILIBRIUM EQUATIONS HAVE CONVERGED

 MAXIMUM NON-PRESCRIBED INCREMENT IN TEMPERATURE IS    15.6    

 ITERATION SUMMARY FOR THE INCREMENT:   3 TOTAL ITERATIONS, OF WHICH
   0 ARE SEVERE DISCONTINUITY ITERATIONS AND  3 ARE EQUILIBRIUM ITERATIONS.

 TIME INCREMENT COMPLETED  0.100    ,  FRACTION OF STEP COMPLETED  0.117    
 STEP TIME COMPLETED        1.17    ,  TOTAL TIME COMPLETED         1.17    
  
     ASYNCHRONOUS OUTPUT DATABASE FRAME FLUSH STARTED
  


  INCREMENT    22 STARTS. ATTEMPT NUMBER  1, TIME INCREMENT  0.100    

 ***NOTE: Domain 1 of 1: 2 elements intersected event series material path

 ***NOTE: Domain 1 of 1: 16 elements intersected event series heat pathj

  NUMBER OF EQUATIONS =       390     NUMBER OF RHS =    1
  NUMBER OF FLOATING PT. OPERATIONS =  5.75E+05

  USING THE DIRECT SOLVER WITH   2 PROCESSORS

     CHECK POINT   START OF SOLVER    

     CHECK POINT  END OF SOLVER       

       ELAPSED USER TIME (SEC)      =   0.0000    
       ELAPSED SYSTEM TIME (SEC)    =   0.0000    
       ELAPSED TOTAL CPU TIME (SEC) =   0.0000    
       ELAPSED WALLCLOCK TIME (SEC) =          0

               CONVERGENCE CHECKS FOR EQUILIBRIUM ITERATION     1


 AVERAGE HEAT FLUX                  0.499       TIME AVG. HEAT FLUX   0.651    
 LARGEST RESIDUAL HEAT FLUX        -0.207       AT NODE        147   DOF 11
   INSTANCE: THERMAL-1                                                                       
 LARGEST INCREMENT OF TEMP.         -7.22       AT NODE         25   DOF 11
   INSTANCE: THERMAL-1                                                                       
 LARGEST CORRECTION TO TEMP.        -7.22       AT NODE         25   DOF 11
   INSTANCE: THERMAL-1                                                                       
          HEAT FLUX EQUILIBRIUM NOT ACHIEVED WITHIN TOLERANCE.

  NUMBER OF EQUATIONS =       390     NUMBER OF RHS =    1
  NUMBER OF FLOATING PT. OPERATIONS =  5.75E+05

  USING THE DIRECT SOLVER WITH   2 PROCESSORS

     CHECK POINT   START OF SOLVER    

     CHECK POINT  END OF SOLVER       

       ELAPSED USER TIME (SEC)      =   0.0000    
       ELAPSED SYSTEM TIME (SEC)    =   0.0000    
       ELAPSED TOTAL CPU TIME (SEC) =   0.0000    
       ELAPSED WALLCLOCK TIME (SEC) =          0

               CONVERGENCE CHECKS FOR EQUILIBRIUM ITERATION     2


 AVERAGE HEAT FLUX                  0.498       TIME AVG. HEAT FLUX   0.651    
 LARGEST RESIDUAL HEAT FLUX         9.209E-04   AT NODE        152   DOF 11
   INSTANCE: THERMAL-1                                                                       
 LARGEST INCREMENT OF TEMP.         -7.21       AT NODE         25   DOF 11
   INSTANCE: THERMAL-1                                                                       
 LARGEST CORRECTION TO TEMP.       -3.621E-02   AT NODE        152   DOF 11
   INSTANCE: THERMAL-1                                                                       
          THE HEAT FLUX EQUILIBRIUM EQUATIONS HAVE CONVERGED

 MAXIMUM NON-PRESCRIBED INCREMENT IN TEMPERATURE IS   -7.21    

 ITERATION SUMMARY FOR THE INCREMENT:   2 TOTAL ITERATIONS, OF WHICH
   0 ARE SEVERE DISCONTINUITY ITERATIONS AND  2 ARE EQUILIBRIUM ITERATIONS.

 TIME INCREMENT COMPLETED  0.100    ,  FRACTION OF STEP COMPLETED  0.127    
 STEP TIME COMPLETED        1.27    ,  TOTAL TIME COMPLETED         1.27    
  
     ASYNCHRONOUS OUTPUT DATABASE FRAME FLUSH STARTED
  


  INCREMENT    23 STARTS. ATTEMPT NUMBER  1, TIME INCREMENT  0.100    

 ***NOTE: Domain 1 of 1: 4 elements intersected event series material path

 ***NOTE: Domain 1 of 1: 16 elements intersected event series heat pathj

  NUMBER OF EQUATIONS =       392     NUMBER OF RHS =    1
  NUMBER OF FLOATING PT. OPERATIONS =  6.08E+05

  USING THE DIRECT SOLVER WITH   2 PROCESSORS

     CHECK POINT   START OF SOLVER    

     CHECK POINT  END OF SOLVER       

       ELAPSED USER TIME (SEC)      =   0.0000    
       ELAPSED SYSTEM TIME (SEC)    =   0.0000    
       ELAPSED TOTAL CPU TIME (SEC) =   0.0000    
       ELAPSED WALLCLOCK TIME (SEC) =          0

               CONVERGENCE CHECKS FOR EQUILIBRIUM ITERATION     1


 AVERAGE HEAT FLUX                  0.499       TIME AVG. HEAT FLUX   0.644    
 LARGEST RESIDUAL HEAT FLUX        -0.517       AT NODE        146   DOF 11
   INSTANCE: THERMAL-1                                                                       
 LARGEST INCREMENT OF TEMP.          10.5       AT NODE        146   DOF 11
   INSTANCE: THERMAL-1                                                                       
 LARGEST CORRECTION TO TEMP.         10.5       AT NODE        146   DOF 11
   INSTANCE: THERMAL-1                                                                       
          HEAT FLUX EQUILIBRIUM NOT ACHIEVED WITHIN TOLERANCE.

  NUMBER OF EQUATIONS =       392     NUMBER OF RHS =    1
  NUMBER OF FLOATING PT. OPERATIONS =  6.08E+05

  USING THE DIRECT SOLVER WITH   2 PROCESSORS

     CHECK POINT   START OF SOLVER    

     CHECK POINT  END OF SOLVER       

       ELAPSED USER TIME (SEC)      =   0.0000    
       ELAPSED SYSTEM TIME (SEC)    =   0.0000    
       ELAPSED TOTAL CPU TIME (SEC) =   0.0000    
       ELAPSED WALLCLOCK TIME (SEC) =          0

               CONVERGENCE CHECKS FOR EQUILIBRIUM ITERATION     2


 AVERAGE HEAT FLUX                  0.498       TIME AVG. HEAT FLUX   0.644    
 LARGEST RESIDUAL HEAT FLUX         3.171E-03   AT NODE        146   DOF 11
   INSTANCE: THERMAL-1                                                                       
 LARGEST INCREMENT OF TEMP.          10.5       AT NODE        146   DOF 11
   INSTANCE: THERMAL-1                                                                       
 LARGEST CORRECTION TO TEMP.       -7.828E-02   AT NODE        151   DOF 11
   INSTANCE: THERMAL-1                                                                       
          THE HEAT FLUX EQUILIBRIUM EQUATIONS HAVE CONVERGED

 MAXIMUM NON-PRESCRIBED INCREMENT IN TEMPERATURE IS    10.5    

 ITERATION SUMMARY FOR THE INCREMENT:   2 TOTAL ITERATIONS, OF WHICH
   0 ARE SEVERE DISCONTINUITY ITERATIONS AND  2 ARE EQUILIBRIUM ITERATIONS.

 TIME INCREMENT COMPLETED  0.100    ,  FRACTION OF STEP COMPLETED  0.137    
 STEP TIME COMPLETED        1.37    ,  TOTAL TIME COMPLETED         1.37    
  
     ASYNCHRONOUS OUTPUT DATABASE FRAME FLUSH STARTED
  


  INCREMENT    24 STARTS. ATTEMPT NUMBER  1, TIME INCREMENT  0.100    

 ***NOTE: Domain 1 of 1: 2 elements intersected event series material path

 ***NOTE: Domain 1 of 1: 16 elements intersected event series heat pathj

  NUMBER OF EQUATIONS =       392     NUMBER OF RHS =    1
  NUMBER OF FLOATING PT. OPERATIONS =  6.08E+05

  USING THE DIRECT SOLVER WITH   2 PROCESSORS

     CHECK POINT   START OF SOLVER    

     CHECK POINT  END OF SOLVER       

       ELAPSED USER TIME (SEC)      =  0.10000    
       ELAPSED SYSTEM TIME (SEC)    =   0.0000    
       ELAPSED TOTAL CPU TIME (SEC) =  0.10000    
       ELAPSED WALLCLOCK TIME (SEC) =          0

               CONVERGENCE CHECKS FOR EQUILIBRIUM ITERATION     1


 AVERAGE HEAT FLUX                  0.516       TIME AVG. HEAT FLUX   0.639    
 LARGEST RESIDUAL HEAT FLUX        -0.305       AT NODE        145   DOF 11
   INSTANCE: THERMAL-1                                                                       
 LARGEST INCREMENT OF TEMP.          12.0       AT NODE        145   DOF 11
   INSTANCE: THERMAL-1                                                                       
 LARGEST CORRECTION TO TEMP.         12.0       AT NODE        145   DOF 11
   INSTANCE: THERMAL-1                                                                       
          HEAT FLUX EQUILIBRIUM NOT ACHIEVED WITHIN TOLERANCE.

  NUMBER OF EQUATIONS =       392     NUMBER OF RHS =    1
  NUMBER OF FLOATING PT. OPERATIONS =  6.08E+05

  USING THE DIRECT SOLVER WITH   2 PROCESSORS

     CHECK POINT   START OF SOLVER    

     CHECK POINT  END OF SOLVER       

       ELAPSED USER TIME (SEC)      =   0.0000    
       ELAPSED SYSTEM TIME (SEC)    =   0.0000    
       ELAPSED TOTAL CPU TIME (SEC) =   0.0000    
       ELAPSED WALLCLOCK TIME (SEC) =          0

               CONVERGENCE CHECKS FOR EQUILIBRIUM ITERATION     2


 AVERAGE HEAT FLUX                  0.515       TIME AVG. HEAT FLUX   0.639    
 LARGEST RESIDUAL HEAT FLUX        -1.434E-03   AT NODE        170   DOF 11
   INSTANCE: THERMAL-1                                                                       
 LARGEST INCREMENT OF TEMP.          12.0       AT NODE        145   DOF 11
   INSTANCE: THERMAL-1                                                                       
 LARGEST CORRECTION TO TEMP.       -7.026E-02   AT NODE        145   DOF 11
   INSTANCE: THERMAL-1                                                                       
          THE HEAT FLUX EQUILIBRIUM EQUATIONS HAVE CONVERGED

 MAXIMUM NON-PRESCRIBED INCREMENT IN TEMPERATURE IS    12.0    

 ITERATION SUMMARY FOR THE INCREMENT:   2 TOTAL ITERATIONS, OF WHICH
   0 ARE SEVERE DISCONTINUITY ITERATIONS AND  2 ARE EQUILIBRIUM ITERATIONS.

 TIME INCREMENT COMPLETED  0.100    ,  FRACTION OF STEP COMPLETED  0.147    
 STEP TIME COMPLETED        1.47    ,  TOTAL TIME COMPLETED         1.47    
  
     ASYNCHRONOUS OUTPUT DATABASE FRAME FLUSH STARTED
  


  INCREMENT    25 STARTS. ATTEMPT NUMBER  1, TIME INCREMENT  0.100    

 ***NOTE: Domain 1 of 1: 4 elements intersected event series material path

 ***NOTE: Domain 1 of 1: 16 elements intersected event series heat pathj

  NUMBER OF EQUATIONS =       394     NUMBER OF RHS =    1
  NUMBER OF FLOATING PT. OPERATIONS =  6.31E+05

  USING THE DIRECT SOLVER WITH   2 PROCESSORS

     CHECK POINT   START OF SOLVER    

     CHECK POINT  END OF SOLVER       

       ELAPSED USER TIME (SEC)      =  0.10000    
       ELAPSED SYSTEM TIME (SEC)    =   0.0000    
       ELAPSED TOTAL CPU TIME (SEC) =  0.10000    
       ELAPSED WALLCLOCK TIME (SEC) =          0

               CONVERGENCE CHECKS FOR EQUILIBRIUM ITERATION     1


 AVERAGE HEAT FLUX                  0.492       TIME AVG. HEAT FLUX   0.633    
 LARGEST RESIDUAL HEAT FLUX        -0.484       AT NODE        145   DOF 11
   INSTANCE: THERMAL-1                                                                       
 LARGEST INCREMENT OF TEMP.          7.37       AT NODE        145   DOF 11
   INSTANCE: THERMAL-1                                                                       
 LARGEST CORRECTION TO TEMP.         7.37       AT NODE        145   DOF 11
   INSTANCE: THERMAL-1                                                                       
          HEAT FLUX EQUILIBRIUM NOT ACHIEVED WITHIN TOLERANCE.

  NUMBER OF EQUATIONS =       394     NUMBER OF RHS =    1
  NUMBER OF FLOATING PT. OPERATIONS =  6.31E+05

  USING THE DIRECT SOLVER WITH   2 PROCESSORS

     CHECK POINT   START OF SOLVER    

     CHECK POINT  END OF SOLVER       

       ELAPSED USER TIME (SEC)      =   0.0000    
       ELAPSED SYSTEM TIME (SEC)    =   0.0000    
       ELAPSED TOTAL CPU TIME (SEC) =   0.0000    
       ELAPSED WALLCLOCK TIME (SEC) =          0

               CONVERGENCE CHECKS FOR EQUILIBRIUM ITERATION     2


 AVERAGE HEAT FLUX                  0.491       TIME AVG. HEAT FLUX   0.633    
 LARGEST RESIDUAL HEAT FLUX         1.969E-03   AT NODE        150   DOF 11
[...]
 STEP TIME COMPLETED        9.07    ,  TOTAL TIME COMPLETED         9.07    
  
     ASYNCHRONOUS OUTPUT DATABASE FRAME FLUSH STARTED
  


  INCREMENT   101 STARTS. ATTEMPT NUMBER  1, TIME INCREMENT  0.100    

 ***NOTE: Domain 1 of 1: 0 elements intersected event series material path

 ***NOTE: Domain 1 of 1: 0 elements intersected event series heat pathj

  NUMBER OF EQUATIONS =       412     NUMBER OF RHS =    1
  NUMBER OF FLOATING PT. OPERATIONS =  6.39E+05

  USING THE DIRECT SOLVER WITH   2 PROCESSORS

     CHECK POINT   START OF SOLVER    

     CHECK POINT  END OF SOLVER       

       ELAPSED USER TIME (SEC)      =   0.0000    
       ELAPSED SYSTEM TIME (SEC)    =   0.0000    
       ELAPSED TOTAL CPU TIME (SEC) =   0.0000    
       ELAPSED WALLCLOCK TIME (SEC) =          0

               CONVERGENCE CHECKS FOR EQUILIBRIUM ITERATION     1


 AVERAGE HEAT FLUX                  8.965E-03   TIME AVG. HEAT FLUX   0.231    
 LARGEST RESIDUAL HEAT FLUX         2.678E-05   AT NODE        368   DOF 11
   INSTANCE: THERMAL-1                                                                       
 LARGEST INCREMENT OF TEMP.        -2.374E-02   AT NODE        175   DOF 11
   INSTANCE: THERMAL-1                                                                       
 LARGEST CORRECTION TO TEMP.       -2.374E-02   AT NODE        175   DOF 11
   INSTANCE: THERMAL-1                                                                       
 ESTIMATE OF TEMP.    CORRECTION    1.142E-06
 HEAT FLUX EQUILIB. ACCEPTED BASED ON SMALL RESIDUAL AND ESTIMATED CORRECTION

 MAXIMUM NON-PRESCRIBED INCREMENT IN TEMPERATURE IS  -2.374E-02

 ITERATION SUMMARY FOR THE INCREMENT:   1 TOTAL ITERATIONS, OF WHICH
   0 ARE SEVERE DISCONTINUITY ITERATIONS AND  1 ARE EQUILIBRIUM ITERATIONS.

 TIME INCREMENT COMPLETED  0.100    ,  FRACTION OF STEP COMPLETED  0.917    
 STEP TIME COMPLETED        9.17    ,  TOTAL TIME COMPLETED         9.17    
  
     ASYNCHRONOUS OUTPUT DATABASE FRAME FLUSH STARTED
  


  INCREMENT   102 STARTS. ATTEMPT NUMBER  1, TIME INCREMENT  0.100    

 ***NOTE: Domain 1 of 1: 0 elements intersected event series material path

 ***NOTE: Domain 1 of 1: 0 elements intersected event series heat pathj

  NUMBER OF EQUATIONS =       412     NUMBER OF RHS =    1
  NUMBER OF FLOATING PT. OPERATIONS =  6.39E+05

  USING THE DIRECT SOLVER WITH   2 PROCESSORS

     CHECK POINT   START OF SOLVER    

     CHECK POINT  END OF SOLVER       

       ELAPSED USER TIME (SEC)      =  0.10000    
       ELAPSED SYSTEM TIME (SEC)    =   0.0000    
       ELAPSED TOTAL CPU TIME (SEC) =  0.10000    
       ELAPSED WALLCLOCK TIME (SEC) =          0

               CONVERGENCE CHECKS FOR EQUILIBRIUM ITERATION     1


 AVERAGE HEAT FLUX                  8.808E-03   TIME AVG. HEAT FLUX   0.229    
 LARGEST RESIDUAL HEAT FLUX         2.578E-05   AT NODE        368   DOF 11
   INSTANCE: THERMAL-1                                                                       
 LARGEST INCREMENT OF TEMP.        -2.313E-02   AT NODE        175   DOF 11
   INSTANCE: THERMAL-1                                                                       
 LARGEST CORRECTION TO TEMP.       -2.313E-02   AT NODE        175   DOF 11
   INSTANCE: THERMAL-1                                                                       
 ESTIMATE OF TEMP.    CORRECTION    1.092E-06
 HEAT FLUX EQUILIB. ACCEPTED BASED ON SMALL RESIDUAL AND ESTIMATED CORRECTION

 MAXIMUM NON-PRESCRIBED INCREMENT IN TEMPERATURE IS  -2.313E-02

 ITERATION SUMMARY FOR THE INCREMENT:   1 TOTAL ITERATIONS, OF WHICH
   0 ARE SEVERE DISCONTINUITY ITERATIONS AND  1 ARE EQUILIBRIUM ITERATIONS.

 TIME INCREMENT COMPLETED  0.100    ,  FRACTION OF STEP COMPLETED  0.927    
 STEP TIME COMPLETED        9.27    ,  TOTAL TIME COMPLETED         9.27    
  
     ASYNCHRONOUS OUTPUT DATABASE FRAME FLUSH STARTED
  


  INCREMENT   103 STARTS. ATTEMPT NUMBER  1, TIME INCREMENT  0.100    

 ***NOTE: Domain 1 of 1: 0 elements intersected event series material path

 ***NOTE: Domain 1 of 1: 0 elements intersected event series heat pathj

  NUMBER OF EQUATIONS =       412     NUMBER OF RHS =    1
  NUMBER OF FLOATING PT. OPERATIONS =  6.39E+05

  USING THE DIRECT SOLVER WITH   2 PROCESSORS

     CHECK POINT   START OF SOLVER    

     CHECK POINT  END OF SOLVER       

       ELAPSED USER TIME (SEC)      =  0.10000    
       ELAPSED SYSTEM TIME (SEC)    =   0.0000    
       ELAPSED TOTAL CPU TIME (SEC) =  0.10000    
       ELAPSED WALLCLOCK TIME (SEC) =          0

               CONVERGENCE CHECKS FOR EQUILIBRIUM ITERATION     1


 AVERAGE HEAT FLUX                  8.654E-03   TIME AVG. HEAT FLUX   0.227    
 LARGEST RESIDUAL HEAT FLUX         2.481E-05   AT NODE        368   DOF 11
   INSTANCE: THERMAL-1                                                                       
 LARGEST INCREMENT OF TEMP.        -2.255E-02   AT NODE        175   DOF 11
   INSTANCE: THERMAL-1                                                                       
 LARGEST CORRECTION TO TEMP.       -2.255E-02   AT NODE        175   DOF 11
   INSTANCE: THERMAL-1                                                                       
 ESTIMATE OF TEMP.    CORRECTION    1.044E-06
 HEAT FLUX EQUILIB. ACCEPTED BASED ON SMALL RESIDUAL AND ESTIMATED CORRECTION

 MAXIMUM NON-PRESCRIBED INCREMENT IN TEMPERATURE IS  -2.255E-02

 ITERATION SUMMARY FOR THE INCREMENT:   1 TOTAL ITERATIONS, OF WHICH
   0 ARE SEVERE DISCONTINUITY ITERATIONS AND  1 ARE EQUILIBRIUM ITERATIONS.

 TIME INCREMENT COMPLETED  0.100    ,  FRACTION OF STEP COMPLETED  0.937    
 STEP TIME COMPLETED        9.37    ,  TOTAL TIME COMPLETED         9.37    
  
     ASYNCHRONOUS OUTPUT DATABASE FRAME FLUSH STARTED
  


  INCREMENT   104 STARTS. ATTEMPT NUMBER  1, TIME INCREMENT  0.100    

 ***NOTE: Domain 1 of 1: 0 elements intersected event series material path

 ***NOTE: Domain 1 of 1: 0 elements intersected event series heat pathj

  NUMBER OF EQUATIONS =       412     NUMBER OF RHS =    1
  NUMBER OF FLOATING PT. OPERATIONS =  6.39E+05

  USING THE DIRECT SOLVER WITH   2 PROCESSORS

     CHECK POINT   START OF SOLVER    

     CHECK POINT  END OF SOLVER       

       ELAPSED USER TIME (SEC)      =   0.0000    
       ELAPSED SYSTEM TIME (SEC)    =   0.0000    
       ELAPSED TOTAL CPU TIME (SEC) =   0.0000    
       ELAPSED WALLCLOCK TIME (SEC) =          0

               CONVERGENCE CHECKS FOR EQUILIBRIUM ITERATION     1


 AVERAGE HEAT FLUX                  8.503E-03   TIME AVG. HEAT FLUX   0.225    
 LARGEST RESIDUAL HEAT FLUX         2.387E-05   AT NODE        368   DOF 11
   INSTANCE: THERMAL-1                                                                       
 LARGEST INCREMENT OF TEMP.        -2.198E-02   AT NODE        175   DOF 11
   INSTANCE: THERMAL-1                                                                       
 LARGEST CORRECTION TO TEMP.       -2.198E-02   AT NODE        175   DOF 11
   INSTANCE: THERMAL-1                                                                       
 ESTIMATE OF TEMP.    CORRECTION    9.992E-07
 HEAT FLUX EQUILIB. ACCEPTED BASED ON SMALL RESIDUAL AND ESTIMATED CORRECTION

 MAXIMUM NON-PRESCRIBED INCREMENT IN TEMPERATURE IS  -2.198E-02

 ITERATION SUMMARY FOR THE INCREMENT:   1 TOTAL ITERATIONS, OF WHICH
   0 ARE SEVERE DISCONTINUITY ITERATIONS AND  1 ARE EQUILIBRIUM ITERATIONS.

 TIME INCREMENT COMPLETED  0.100    ,  FRACTION OF STEP COMPLETED  0.947    
 STEP TIME COMPLETED        9.47    ,  TOTAL TIME COMPLETED         9.47    
  
     ASYNCHRONOUS OUTPUT DATABASE FRAME FLUSH STARTED
  


  INCREMENT   105 STARTS. ATTEMPT NUMBER  1, TIME INCREMENT  0.100    

 ***NOTE: Domain 1 of 1: 0 elements intersected event series material path

 ***NOTE: Domain 1 of 1: 0 elements intersected event series heat pathj

  NUMBER OF EQUATIONS =       412     NUMBER OF RHS =    1
  NUMBER OF FLOATING PT. OPERATIONS =  6.39E+05

  USING THE DIRECT SOLVER WITH   2 PROCESSORS

     CHECK POINT   START OF SOLVER    

     CHECK POINT  END OF SOLVER       

       ELAPSED USER TIME (SEC)      =   0.0000    
       ELAPSED SYSTEM TIME (SEC)    =   0.0000    
       ELAPSED TOTAL CPU TIME (SEC) =   0.0000    
       ELAPSED WALLCLOCK TIME (SEC) =          0

               CONVERGENCE CHECKS FOR EQUILIBRIUM ITERATION     1


 AVERAGE HEAT FLUX                  8.356E-03   TIME AVG. HEAT FLUX   0.223    
 LARGEST RESIDUAL HEAT FLUX         2.297E-05   AT NODE        368   DOF 11
   INSTANCE: THERMAL-1                                                                       
 LARGEST INCREMENT OF TEMP.        -2.148E-02   AT NODE        170   DOF 11
   INSTANCE: THERMAL-1                                                                       
 LARGEST CORRECTION TO TEMP.       -2.148E-02   AT NODE        170   DOF 11
   INSTANCE: THERMAL-1                                                                       
 ESTIMATE OF TEMP.    CORRECTION    9.582E-07
 HEAT FLUX EQUILIB. ACCEPTED BASED ON SMALL RESIDUAL AND ESTIMATED CORRECTION

 MAXIMUM NON-PRESCRIBED INCREMENT IN TEMPERATURE IS  -2.148E-02

 ITERATION SUMMARY FOR THE INCREMENT:   1 TOTAL ITERATIONS, OF WHICH
   0 ARE SEVERE DISCONTINUITY ITERATIONS AND  1 ARE EQUILIBRIUM ITERATIONS.

 TIME INCREMENT COMPLETED  0.100    ,  FRACTION OF STEP COMPLETED  0.957    
 STEP TIME COMPLETED        9.57    ,  TOTAL TIME COMPLETED         9.57    
  
     ASYNCHRONOUS OUTPUT DATABASE FRAME FLUSH STARTED
  


  INCREMENT   106 STARTS. ATTEMPT NUMBER  1, TIME INCREMENT  0.100    

 ***NOTE: Domain 1 of 1: 0 elements intersected event series material path

 ***NOTE: Domain 1 of 1: 0 elements intersected event series heat pathj

  NUMBER OF EQUATIONS =       412     NUMBER OF RHS =    1
  NUMBER OF FLOATING PT. OPERATIONS =  6.39E+05

  USING THE DIRECT SOLVER WITH   2 PROCESSORS

     CHECK POINT   START OF SOLVER    

     CHECK POINT  END OF SOLVER       

       ELAPSED USER TIME (SEC)      =   0.0000    
       ELAPSED SYSTEM TIME (SEC)    =   0.0000    
       ELAPSED TOTAL CPU TIME (SEC) =   0.0000    
       ELAPSED WALLCLOCK TIME (SEC) =          0

               CONVERGENCE CHECKS FOR EQUILIBRIUM ITERATION     1


 AVERAGE HEAT FLUX                  8.212E-03   TIME AVG. HEAT FLUX   0.221    
 LARGEST RESIDUAL HEAT FLUX         2.210E-05   AT NODE        368   DOF 11
   INSTANCE: THERMAL-1                                                                       
 LARGEST INCREMENT OF TEMP.        -2.101E-02   AT NODE        170   DOF 11
   INSTANCE: THERMAL-1                                                                       
 LARGEST CORRECTION TO TEMP.       -2.101E-02   AT NODE        170   DOF 11
   INSTANCE: THERMAL-1                                                                       
 ESTIMATE OF TEMP.    CORRECTION    9.193E-07
 HEAT FLUX EQUILIB. ACCEPTED BASED ON SMALL RESIDUAL AND ESTIMATED CORRECTION

 MAXIMUM NON-PRESCRIBED INCREMENT IN TEMPERATURE IS  -2.101E-02

 ITERATION SUMMARY FOR THE INCREMENT:   1 TOTAL ITERATIONS, OF WHICH
   0 ARE SEVERE DISCONTINUITY ITERATIONS AND  1 ARE EQUILIBRIUM ITERATIONS.

 TIME INCREMENT COMPLETED  0.100    ,  FRACTION OF STEP COMPLETED  0.967    
 STEP TIME COMPLETED        9.67    ,  TOTAL TIME COMPLETED         9.67    
  
     ASYNCHRONOUS OUTPUT DATABASE FRAME FLUSH STARTED
  


  INCREMENT   107 STARTS. ATTEMPT NUMBER  1, TIME INCREMENT  0.100    

 ***NOTE: Domain 1 of 1: 0 elements intersected event series material path

 ***NOTE: Domain 1 of 1: 0 elements intersected event series heat pathj

  NUMBER OF EQUATIONS =       412     NUMBER OF RHS =    1
  NUMBER OF FLOATING PT. OPERATIONS =  6.39E+05

  USING THE DIRECT SOLVER WITH   2 PROCESSORS

     CHECK POINT   START OF SOLVER    

     CHECK POINT  END OF SOLVER       

       ELAPSED USER TIME (SEC)      =   0.0000    
       ELAPSED SYSTEM TIME (SEC)    =   0.0000    
       ELAPSED TOTAL CPU TIME (SEC) =   0.0000    
       ELAPSED WALLCLOCK TIME (SEC) =          0

               CONVERGENCE CHECKS FOR EQUILIBRIUM ITERATION     1


 AVERAGE HEAT FLUX                  8.071E-03   TIME AVG. HEAT FLUX   0.219    
 LARGEST RESIDUAL HEAT FLUX         2.126E-05   AT NODE        368   DOF 11
   INSTANCE: THERMAL-1                                                                       
 LARGEST INCREMENT OF TEMP.        -2.055E-02   AT NODE        170   DOF 11
   INSTANCE: THERMAL-1                                                                       
 LARGEST CORRECTION TO TEMP.       -2.055E-02   AT NODE        170   DOF 11
   INSTANCE: THERMAL-1                                                                       
 ESTIMATE OF TEMP.    CORRECTION    8.822E-07
 HEAT FLUX EQUILIB. ACCEPTED BASED ON SMALL RESIDUAL AND ESTIMATED CORRECTION

 MAXIMUM NON-PRESCRIBED INCREMENT IN TEMPERATURE IS  -2.055E-02

 ITERATION SUMMARY FOR THE INCREMENT:   1 TOTAL ITERATIONS, OF WHICH
   0 ARE SEVERE DISCONTINUITY ITERATIONS AND  1 ARE EQUILIBRIUM ITERATIONS.

 TIME INCREMENT COMPLETED  0.100    ,  FRACTION OF STEP COMPLETED  0.977    
 STEP TIME COMPLETED        9.77    ,  TOTAL TIME COMPLETED         9.77    
  
     ASYNCHRONOUS OUTPUT DATABASE FRAME FLUSH STARTED
  


  INCREMENT   108 STARTS. ATTEMPT NUMBER  1, TIME INCREMENT  0.100    

 ***NOTE: Domain 1 of 1: 0 elements intersected event series material path

 ***NOTE: Domain 1 of 1: 0 elements intersected event series heat pathj

  NUMBER OF EQUATIONS =       412     NUMBER OF RHS =    1
  NUMBER OF FLOATING PT. OPERATIONS =  6.39E+05

  USING THE DIRECT SOLVER WITH   2 PROCESSORS

     CHECK POINT   START OF SOLVER    

     CHECK POINT  END OF SOLVER       

       ELAPSED USER TIME (SEC)      =  0.10000    
       ELAPSED SYSTEM TIME (SEC)    =  0.10000    
       ELAPSED TOTAL CPU TIME (SEC) =  0.20000    
       ELAPSED WALLCLOCK TIME (SEC) =          0

               CONVERGENCE CHECKS FOR EQUILIBRIUM ITERATION     1


 AVERAGE HEAT FLUX                  7.934E-03   TIME AVG. HEAT FLUX   0.217    
 LARGEST RESIDUAL HEAT FLUX         2.046E-05   AT NODE        368   DOF 11
   INSTANCE: THERMAL-1                                                                       
 LARGEST INCREMENT OF TEMP.        -2.010E-02   AT NODE        170   DOF 11
   INSTANCE: THERMAL-1                                                                       
 LARGEST CORRECTION TO TEMP.       -2.010E-02   AT NODE        170   DOF 11
   INSTANCE: THERMAL-1                                                                       
 ESTIMATE OF TEMP.    CORRECTION    8.467E-07
 HEAT FLUX EQUILIB. ACCEPTED BASED ON SMALL RESIDUAL AND ESTIMATED CORRECTION

 MAXIMUM NON-PRESCRIBED INCREMENT IN TEMPERATURE IS  -2.010E-02

 ITERATION SUMMARY FOR THE INCREMENT:   1 TOTAL ITERATIONS, OF WHICH
   0 ARE SEVERE DISCONTINUITY ITERATIONS AND  1 ARE EQUILIBRIUM ITERATIONS.

 TIME INCREMENT COMPLETED  0.100    ,  FRACTION OF STEP COMPLETED  0.987    
 STEP TIME COMPLETED        9.87    ,  TOTAL TIME COMPLETED         9.87    
  
     ASYNCHRONOUS OUTPUT DATABASE FRAME FLUSH STARTED
  


  INCREMENT   109 STARTS. ATTEMPT NUMBER  1, TIME INCREMENT  0.100    

 ***NOTE: Domain 1 of 1: 0 elements intersected event series material path

 ***NOTE: Domain 1 of 1: 0 elements intersected event series heat pathj

  NUMBER OF EQUATIONS =       412     NUMBER OF RHS =    1
  NUMBER OF FLOATING PT. OPERATIONS =  6.39E+05

  USING THE DIRECT SOLVER WITH   2 PROCESSORS

     CHECK POINT   START OF SOLVER    

     CHECK POINT  END OF SOLVER       

       ELAPSED USER TIME (SEC)      =  0.10000    
       ELAPSED SYSTEM TIME (SEC)    =   0.0000    
       ELAPSED TOTAL CPU TIME (SEC) =  0.10000    
       ELAPSED WALLCLOCK TIME (SEC) =          0

               CONVERGENCE CHECKS FOR EQUILIBRIUM ITERATION     1


 AVERAGE HEAT FLUX                  7.799E-03   TIME AVG. HEAT FLUX   0.215    
 LARGEST RESIDUAL HEAT FLUX         1.968E-05   AT NODE        368   DOF 11
   INSTANCE: THERMAL-1                                                                       
 LARGEST INCREMENT OF TEMP.        -1.966E-02   AT NODE        170   DOF 11
   INSTANCE: THERMAL-1                                                                       
 LARGEST CORRECTION TO TEMP.       -1.966E-02   AT NODE        170   DOF 11
   INSTANCE: THERMAL-1                                                                       
 ESTIMATE OF TEMP.    CORRECTION    8.128E-07
 HEAT FLUX EQUILIB. ACCEPTED BASED ON SMALL RESIDUAL AND ESTIMATED CORRECTION

 MAXIMUM NON-PRESCRIBED INCREMENT IN TEMPERATURE IS  -1.966E-02

 ITERATION SUMMARY FOR THE INCREMENT:   1 TOTAL ITERATIONS, OF WHICH
   0 ARE SEVERE DISCONTINUITY ITERATIONS AND  1 ARE EQUILIBRIUM ITERATIONS.

 TIME INCREMENT COMPLETED  0.100    ,  FRACTION OF STEP COMPLETED  0.997    
 STEP TIME COMPLETED        9.97    ,  TOTAL TIME COMPLETED         9.97    
  
     ASYNCHRONOUS OUTPUT DATABASE FRAME FLUSH STARTED
  


  INCREMENT   110 STARTS. ATTEMPT NUMBER  1, TIME INCREMENT  3.363E-02

 ***NOTE: Domain 1 of 1: 0 elements intersected event series material path

 ***NOTE: Domain 1 of 1: 0 elements intersected event series heat pathj

  NUMBER OF EQUATIONS =       412     NUMBER OF RHS =    1
  NUMBER OF FLOATING PT. OPERATIONS =  6.39E+05

  USING THE DIRECT SOLVER WITH   2 PROCESSORS

     CHECK POINT   START OF SOLVER    

     CHECK POINT  END OF SOLVER       

       ELAPSED USER TIME (SEC)      =  0.10000    
       ELAPSED SYSTEM TIME (SEC)    =   0.0000    
       ELAPSED TOTAL CPU TIME (SEC) =  0.10000    
       ELAPSED WALLCLOCK TIME (SEC) =          0

               CONVERGENCE CHECKS FOR EQUILIBRIUM ITERATION     1


 AVERAGE HEAT FLUX                  7.754E-03   TIME AVG. HEAT FLUX   0.213    
 LARGEST RESIDUAL HEAT FLUX         6.532E-06   AT NODE        368   DOF 11
   INSTANCE: THERMAL-1                                                                       
 LARGEST INCREMENT OF TEMP.        -6.563E-03   AT NODE        170   DOF 11
   INSTANCE: THERMAL-1                                                                       
 LARGEST CORRECTION TO TEMP.       -6.563E-03   AT NODE        170   DOF 11
   INSTANCE: THERMAL-1                                                                       
 ESTIMATE OF TEMP.    CORRECTION    9.181E-08
 HEAT FLUX EQUILIB. ACCEPTED BASED ON SMALL RESIDUAL AND ESTIMATED CORRECTION

 MAXIMUM NON-PRESCRIBED INCREMENT IN TEMPERATURE IS  -6.563E-03

 ITERATION SUMMARY FOR THE INCREMENT:   1 TOTAL ITERATIONS, OF WHICH
   0 ARE SEVERE DISCONTINUITY ITERATIONS AND  1 ARE EQUILIBRIUM ITERATIONS.

 TIME INCREMENT COMPLETED  3.363E-02,  FRACTION OF STEP COMPLETED   1.00    
 STEP TIME COMPLETED        10.0    ,  TOTAL TIME COMPLETED         10.0    


          THE ANALYSIS HAS BEEN COMPLETED



     ANALYSIS SUMMARY:
     TOTAL OF        110  INCREMENTS
                       0  CUTBACKS IN AUTOMATIC INCREMENTATION
                     159  ITERATIONS INCLUDING CONTACT ITERATIONS IF PRESENT
                     159  PASSES THROUGH THE EQUATION SOLVER OF WHICH 
                     159  INVOLVE MATRIX DECOMPOSITION, INCLUDING
                       0  DECOMPOSITION(S) OF THE MASS MATRIX
                       1  REORDERING OF EQUATIONS TO MINIMIZE WAVEFRONT
                       0  ADDITIONAL RESIDUAL EVALUATIONS FOR LINE SEARCHES
                       0  ADDITIONAL OPERATOR EVALUATIONS FOR LINE SEARCHES
                       6  WARNING MESSAGES DURING USER INPUT PROCESSING
                       0  WARNING MESSAGES DURING ANALYSIS
                       0  ANALYSIS WARNINGS ARE NUMERICAL PROBLEM MESSAGES
                       0  ANALYSIS WARNINGS ARE NEGATIVE EIGENVALUE MESSAGES
                       0  ERROR MESSAGES



     JOB TIME SUMMARY
       USER TIME (SEC)      =   12.900    
       SYSTEM TIME (SEC)    =   3.9000    
       TOTAL CPU TIME (SEC) =   16.800    
       WALLCLOCK TIME (SEC) =         16
